Program Version,EnergyPlus, Version 23.2.0-7636e6b3e9, YMD=2024.04.05 21:36
! <Version>, Version ID
 Version, 23.2
! <Timesteps per Hour>, #TimeSteps, Minutes per TimeStep {minutes}
 Timesteps per Hour,  4, 15
! <System Convergence Limits>, Minimum System TimeStep {minutes}, Max HVAC Iterations, Minimum Plant Iterations, Maximum Plant Iterations
 System Convergence Limits, 1, 25, 2, 8
! <Simulation Control>, Do Zone Sizing, Do System Sizing, Do Plant Sizing, Do Design Days, Do Weather Simulation, Do HVAC Sizing Simulation
 Simulation Control, Yes, Yes, Yes, No, Yes, No
! <Performance Precision Tradeoffs>, Use Coil Direct Simulation, Zone Radiant Exchange Algorithm, Override Mode, Number of Timestep In Hour, Force Euler Method, Minimum Number of Warmup Days, Force Suppress All Begin Environment Resets, Minimum System Timestep, MaxZoneTempDiff, MaxAllowedDelTemp
 Performance Precision Tradeoffs, No, ScriptF, Normal, 4, No, 1, No, 1.0, 0.300, 2.0000E-003
! <Output Reporting Tolerances>, Tolerance for Time Heating Setpoint Not Met, Tolerance for Zone Cooling Setpoint Not Met Time
 Output Reporting Tolerances, 1.111, 1.111, 
! <Site:GroundTemperature:BuildingSurface>,Jan{C},Feb{C},Mar{C},Apr{C},May{C},Jun{C},Jul{C},Aug{C},Sep{C},Oct{C},Nov{C},Dec{C}
 Site:GroundTemperature:BuildingSurface,  18.00,  18.00,  18.00,  18.00,  18.00,  18.00,  18.00,  18.00,  18.00,  18.00,  18.00,  18.00
! <Site:GroundTemperature:FCfactorMethod>,Jan{C},Feb{C},Mar{C},Apr{C},May{C},Jun{C},Jul{C},Aug{C},Sep{C},Oct{C},Nov{C},Dec{C}
 Site:GroundTemperature:FCfactorMethod,  27.55,  28.03,  28.32,  28.42,  28.26,  27.88,  27.40,  26.92,  26.59,  26.51,  26.68,  27.05
! <Site:GroundTemperature:Shallow>,Jan{C},Feb{C},Mar{C},Apr{C},May{C},Jun{C},Jul{C},Aug{C},Sep{C},Oct{C},Nov{C},Dec{C}
 Site:GroundTemperature:Shallow,  14.00,  14.00,  14.00,  14.00,  14.00,  14.00,  14.00,  14.00,  14.00,  14.00,  14.00,  14.00
! <Site:GroundTemperature:Deep>,Jan{C},Feb{C},Mar{C},Apr{C},May{C},Jun{C},Jul{C},Aug{C},Sep{C},Oct{C},Nov{C},Dec{C}
 Site:GroundTemperature:Deep,  14.00,  14.00,  14.00,  14.00,  14.00,  14.00,  14.00,  14.00,  14.00,  14.00,  14.00,  14.00
! <Site:GroundReflectance>,Jan{dimensionless},Feb{dimensionless},Mar{dimensionless},Apr{dimensionless},May{dimensionless},Jun{dimensionless},Jul{dimensionless},Aug{dimensionless},Sep{dimensionless},Oct{dimensionless},Nov{dimensionless},Dec{dimensionless}
 Site:GroundReflectance,  0.20,  0.20,  0.20,  0.20,  0.20,  0.20,  0.20,  0.20,  0.20,  0.20,  0.20,  0.20
! <Site:GroundReflectance:SnowModifier>, Normal, Daylighting {dimensionless}
 Site:GroundReflectance:SnowModifier,   2.000,   2.000
! <Site:GroundReflectance:Snow>,Jan{dimensionless},Feb{dimensionless},Mar{dimensionless},Apr{dimensionless},May{dimensionless},Jun{dimensionless},Jul{dimensionless},Aug{dimensionless},Sep{dimensionless},Oct{dimensionless},Nov{dimensionless},Dec{dimensionless}
 Site:GroundReflectance:Snow,  0.40,  0.40,  0.40,  0.40,  0.40,  0.40,  0.40,  0.40,  0.40,  0.40,  0.40,  0.40
! <Site:GroundReflectance:Snow:Daylighting>,Jan{dimensionless},Feb{dimensionless},Mar{dimensionless},Apr{dimensionless},May{dimensionless},Jun{dimensionless},Jul{dimensionless},Aug{dimensionless},Sep{dimensionless},Oct{dimensionless},Nov{dimensionless},Dec{dimensionless}
 Site:GroundReflectance:Snow:Daylighting,  0.40,  0.40,  0.40,  0.40,  0.40,  0.40,  0.40,  0.40,  0.40,  0.40,  0.40,  0.40
! <Environment:Weather Station>,Wind Sensor Height Above Ground {m},Wind Speed Profile Exponent {},Wind Speed Profile Boundary Layer Thickness {m},Air Temperature Sensor Height Above Ground {m},Wind Speed Modifier Coefficient-Internal,Temperature Modifier Coefficient-Internal
Environment:Weather Station,10.000,0.140,270.000,1.500,1.586,9.750E-003
! <Site:Location>, Location Name, Latitude {N+/S- Deg}, Longitude {E+/W- Deg},  Time Zone Number {GMT+/-}, Elevation {m},  Standard Pressure at Elevation {Pa}, Standard RhoAir at Elevation
Site:Location,SINGAPORE - SGP IWEC Data WMO#=486980,1.37,103.98,8.00,16.00,101133,1.2020
! <Site Water Mains Temperature Information>,Calculation Method{},Water Mains Temperature Schedule Name{},Annual Average Outdoor Air Temperature{C},Maximum Difference In Monthly Average Outdoor Air Temperatures{deltaC},Fixed Default Water Mains Temperature{C}
Site Water Mains Temperature Information,Correlation,NA,10.00,20.00,NA
! <Building Information>, Building Name,North Axis {deg},Terrain,  Loads Convergence Tolerance Value,Temperature Convergence Tolerance Value,  Solar Distribution,Maximum Number of Warmup Days,Minimum Number of Warmup Days
 Building Information,Building,0.000,Suburbs,4.00000E-002,0.40000,FullExteriorWithReflectionsFromExteriorSurfaces,25,6
! <Inside Convection Algorithm>, Algorithm {Simple | TARP | CeilingDiffuser | AdaptiveConvectionAlgorithm}
Inside Convection Algorithm,TARP
! <Outside Convection Algorithm>, Algorithm {SimpleCombined | TARP | MoWitt | DOE-2 | AdaptiveConvectionAlgorithm}
Outside Convection Algorithm,DOE-2
! <Sky Radiance Distribution>, Value {Anisotropic}
Sky Radiance Distribution,Anisotropic
! <Zone Air Solution Algorithm>, Algorithm {ThirdOrderBackwardDifference | AnalyticalSolution | EulerMethod}, Space Heat Balance Sizing, Space Heat Balance Simulation
 Zone Air Solution Algorithm, ThirdOrderBackwardDifference, No, No
! <Zone Air Carbon Dioxide Balance Simulation>, Simulation {Yes/No}, Carbon Dioxide Concentration
 Zone Air Carbon Dioxide Balance Simulation, Yes,YES
! <Zone Air Generic Contaminant Balance Simulation>, Simulation {Yes/No}, Generic Contaminant Concentration
 Zone Air Generic Contaminant Balance Simulation, No,N/A
! <Zone Air Mass Flow Balance Simulation>, Enforce Mass Balance, Adjust Zone Mixing and Return {AdjustMixingOnly | AdjustReturnOnly | AdjustMixingThenReturn | AdjustReturnThenMixing | None}, Adjust Zone Infiltration {AddInfiltration | AdjustInfiltration | None}, Infiltration Zones {MixingSourceZonesOnly | AllZones}
 Zone Air Mass Flow Balance Simulation, No,N/A,N/A,N/A
! <HVACSystemRootFindingAlgorithm>, Value {RegulaFalsi | Bisection | BisectionThenRegulaFalsi | RegulaFalsiThenBisection}
 HVACSystemRootFindingAlgorithm, RegulaFalsi
! <Environment:Site Atmospheric Variation>,Wind Speed Profile Exponent {},Wind Speed Profile Boundary Layer Thickness {m},Air Temperature Gradient Coefficient {K/m}
Environment:Site Atmospheric Variation,0.220,370.000,6.500000E-003
! <Surface Geometry>,Starting Corner,Vertex Input Direction,Coordinate System,Daylight Reference Point Coordinate System,Rectangular (Simple) Surface Coordinate System
 Surface Geometry,LowerLeftCorner,Counterclockwise,RelativeCoordinateSystem,RelativeCoordinateSystem,RelativeToZoneOrigin
! <ShadingProperty Reflectance>,Shading Surface Name,Shading Type,Diffuse Solar Reflectance, Diffuse Visible Reflectance,Surface Glazing Fraction,Surface Glazing Contruction
ShadingProperty Reflectance,SURROUNDING BUILDING - COMPONENT BLOCK 1 - SURFACE 1 (1),Detached Shading:Building,0.20,0.20,0.00, N/A
ShadingProperty Reflectance,Mir-SURROUNDING BUILDING - COMPONENT BLOCK 1 - SURFACE 1 (1),Detached Shading:Building,0.20,0.20,0.00, N/A
ShadingProperty Reflectance,SURROUNDING BUILDING - COMPONENT BLOCK 1 - SURFACE 2 (2),Detached Shading:Building,0.20,0.20,0.00, N/A
ShadingProperty Reflectance,Mir-SURROUNDING BUILDING - COMPONENT BLOCK 1 - SURFACE 2 (2),Detached Shading:Building,0.20,0.20,0.00, N/A
ShadingProperty Reflectance,SURROUNDING BUILDING - COMPONENT BLOCK 1 - SURFACE 3 (3),Detached Shading:Building,0.20,0.20,0.00, N/A
ShadingProperty Reflectance,Mir-SURROUNDING BUILDING - COMPONENT BLOCK 1 - SURFACE 3 (3),Detached Shading:Building,0.20,0.20,0.00, N/A
ShadingProperty Reflectance,SURROUNDING BUILDING - COMPONENT BLOCK 1 - SURFACE 4 (4),Detached Shading:Building,0.20,0.20,0.00, N/A
ShadingProperty Reflectance,Mir-SURROUNDING BUILDING - COMPONENT BLOCK 1 - SURFACE 4 (4),Detached Shading:Building,0.20,0.20,0.00, N/A
ShadingProperty Reflectance,SURROUNDING BUILDING - COMPONENT BLOCK 1 - SURFACE 5 (5),Detached Shading:Building,0.20,0.20,0.00, N/A
ShadingProperty Reflectance,Mir-SURROUNDING BUILDING - COMPONENT BLOCK 1 - SURFACE 5 (5),Detached Shading:Building,0.20,0.20,0.00, N/A
ShadingProperty Reflectance,SURROUNDING BUILDING - COMPONENT BLOCK 1 - SURFACE 6 (6),Detached Shading:Building,0.20,0.20,0.00, N/A
ShadingProperty Reflectance,Mir-SURROUNDING BUILDING - COMPONENT BLOCK 1 - SURFACE 6 (6),Detached Shading:Building,0.20,0.20,0.00, N/A
ShadingProperty Reflectance,SURROUNDING BUILDING - COMPONENT BLOCK 2 - SURFACE 1 (7),Detached Shading:Building,0.20,0.20,0.00, N/A
ShadingProperty Reflectance,Mir-SURROUNDING BUILDING - COMPONENT BLOCK 2 - SURFACE 1 (7),Detached Shading:Building,0.20,0.20,0.00, N/A
ShadingProperty Reflectance,SURROUNDING BUILDING - COMPONENT BLOCK 2 - SURFACE 2 (8),Detached Shading:Building,0.20,0.20,0.00, N/A
ShadingProperty Reflectance,Mir-SURROUNDING BUILDING - COMPONENT BLOCK 2 - SURFACE 2 (8),Detached Shading:Building,0.20,0.20,0.00, N/A
ShadingProperty Reflectance,SURROUNDING BUILDING - COMPONENT BLOCK 2 - SURFACE 3 (9),Detached Shading:Building,0.20,0.20,0.00, N/A
ShadingProperty Reflectance,Mir-SURROUNDING BUILDING - COMPONENT BLOCK 2 - SURFACE 3 (9),Detached Shading:Building,0.20,0.20,0.00, N/A
ShadingProperty Reflectance,SURROUNDING BUILDING - COMPONENT BLOCK 2 - SURFACE 4 (10),Detached Shading:Building,0.20,0.20,0.00, N/A
ShadingProperty Reflectance,Mir-SURROUNDING BUILDING - COMPONENT BLOCK 2 - SURFACE 4 (10),Detached Shading:Building,0.20,0.20,0.00, N/A
ShadingProperty Reflectance,SURROUNDING BUILDING - COMPONENT BLOCK 2 - SURFACE 5 (11),Detached Shading:Building,0.20,0.20,0.00, N/A
ShadingProperty Reflectance,Mir-SURROUNDING BUILDING - COMPONENT BLOCK 2 - SURFACE 5 (11),Detached Shading:Building,0.20,0.20,0.00, N/A
ShadingProperty Reflectance,SURROUNDING BUILDING - COMPONENT BLOCK 2 - SURFACE 6 (12),Detached Shading:Building,0.20,0.20,0.00, N/A
ShadingProperty Reflectance,Mir-SURROUNDING BUILDING - COMPONENT BLOCK 2 - SURFACE 6 (12),Detached Shading:Building,0.20,0.20,0.00, N/A
ShadingProperty Reflectance,SURROUNDING BUILDING - COMPONENT BLOCK 2 - SURFACE 7 (13),Detached Shading:Building,0.20,0.20,0.00, N/A
ShadingProperty Reflectance,Mir-SURROUNDING BUILDING - COMPONENT BLOCK 2 - SURFACE 7 (13),Detached Shading:Building,0.20,0.20,0.00, N/A
ShadingProperty Reflectance,SURROUNDING BUILDING - COMPONENT BLOCK 2 - SURFACE 8 (14),Detached Shading:Building,0.20,0.20,0.00, N/A
ShadingProperty Reflectance,Mir-SURROUNDING BUILDING - COMPONENT BLOCK 2 - SURFACE 8 (14),Detached Shading:Building,0.20,0.20,0.00, N/A
ShadingProperty Reflectance,SURROUNDING BUILDING - COMPONENT BLOCK 2 - SURFACE 9 (15),Detached Shading:Building,0.20,0.20,0.00, N/A
ShadingProperty Reflectance,Mir-SURROUNDING BUILDING - COMPONENT BLOCK 2 - SURFACE 9 (15),Detached Shading:Building,0.20,0.20,0.00, N/A
ShadingProperty Reflectance,SURROUNDING BUILDING - COMPONENT BLOCK 2 - SURFACE 10 (16),Detached Shading:Building,0.20,0.20,0.00, N/A
ShadingProperty Reflectance,Mir-SURROUNDING BUILDING - COMPONENT BLOCK 2 - SURFACE 10 (16),Detached Shading:Building,0.20,0.20,0.00, N/A
ShadingProperty Reflectance,SURROUNDING BUILDING - COMPONENT BLOCK 3 - SURFACE 1 (17),Detached Shading:Building,0.20,0.20,0.00, N/A
ShadingProperty Reflectance,Mir-SURROUNDING BUILDING - COMPONENT BLOCK 3 - SURFACE 1 (17),Detached Shading:Building,0.20,0.20,0.00, N/A
ShadingProperty Reflectance,SURROUNDING BUILDING - COMPONENT BLOCK 3 - SURFACE 2 (18),Detached Shading:Building,0.20,0.20,0.00, N/A
ShadingProperty Reflectance,Mir-SURROUNDING BUILDING - COMPONENT BLOCK 3 - SURFACE 2 (18),Detached Shading:Building,0.20,0.20,0.00, N/A
ShadingProperty Reflectance,SURROUNDING BUILDING - COMPONENT BLOCK 3 - SURFACE 3 (19),Detached Shading:Building,0.20,0.20,0.00, N/A
ShadingProperty Reflectance,Mir-SURROUNDING BUILDING - COMPONENT BLOCK 3 - SURFACE 3 (19),Detached Shading:Building,0.20,0.20,0.00, N/A
ShadingProperty Reflectance,SURROUNDING BUILDING - COMPONENT BLOCK 3 - SURFACE 4 (20),Detached Shading:Building,0.20,0.20,0.00, N/A
ShadingProperty Reflectance,Mir-SURROUNDING BUILDING - COMPONENT BLOCK 3 - SURFACE 4 (20),Detached Shading:Building,0.20,0.20,0.00, N/A
ShadingProperty Reflectance,SURROUNDING BUILDING - COMPONENT BLOCK 3 - SURFACE 5 (21),Detached Shading:Building,0.20,0.20,0.00, N/A
ShadingProperty Reflectance,Mir-SURROUNDING BUILDING - COMPONENT BLOCK 3 - SURFACE 5 (21),Detached Shading:Building,0.20,0.20,0.00, N/A
ShadingProperty Reflectance,SURROUNDING BUILDING - COMPONENT BLOCK 3 - SURFACE 6 (22),Detached Shading:Building,0.20,0.20,0.00, N/A
ShadingProperty Reflectance,Mir-SURROUNDING BUILDING - COMPONENT BLOCK 3 - SURFACE 6 (22),Detached Shading:Building,0.20,0.20,0.00, N/A
ShadingProperty Reflectance,SURROUNDING BUILDING - COMPONENT BLOCK 3 - SURFACE 7 (23),Detached Shading:Building,0.20,0.20,0.00, N/A
ShadingProperty Reflectance,Mir-SURROUNDING BUILDING - COMPONENT BLOCK 3 - SURFACE 7 (23),Detached Shading:Building,0.20,0.20,0.00, N/A
ShadingProperty Reflectance,SURROUNDING BUILDING - COMPONENT BLOCK 3 - SURFACE 8 (24),Detached Shading:Building,0.20,0.20,0.00, N/A
ShadingProperty Reflectance,Mir-SURROUNDING BUILDING - COMPONENT BLOCK 3 - SURFACE 8 (24),Detached Shading:Building,0.20,0.20,0.00, N/A
ShadingProperty Reflectance,SURROUNDING BUILDING - COMPONENT BLOCK 3 - SURFACE 9 (25),Detached Shading:Building,0.20,0.20,0.00, N/A
ShadingProperty Reflectance,Mir-SURROUNDING BUILDING - COMPONENT BLOCK 3 - SURFACE 9 (25),Detached Shading:Building,0.20,0.20,0.00, N/A
ShadingProperty Reflectance,SURROUNDING BUILDING - COMPONENT BLOCK 3 - SURFACE 10 (26),Detached Shading:Building,0.20,0.20,0.00, N/A
ShadingProperty Reflectance,Mir-SURROUNDING BUILDING - COMPONENT BLOCK 3 - SURFACE 10 (26),Detached Shading:Building,0.20,0.20,0.00, N/A
ShadingProperty Reflectance,SURROUNDING BUILDING - COMPONENT BLOCK 4 - SURFACE 1 (27),Detached Shading:Building,0.20,0.20,0.00, N/A
ShadingProperty Reflectance,Mir-SURROUNDING BUILDING - COMPONENT BLOCK 4 - SURFACE 1 (27),Detached Shading:Building,0.20,0.20,0.00, N/A
ShadingProperty Reflectance,SURROUNDING BUILDING - COMPONENT BLOCK 4 - SURFACE 2 (28),Detached Shading:Building,0.20,0.20,0.00, N/A
ShadingProperty Reflectance,Mir-SURROUNDING BUILDING - COMPONENT BLOCK 4 - SURFACE 2 (28),Detached Shading:Building,0.20,0.20,0.00, N/A
ShadingProperty Reflectance,SURROUNDING BUILDING - COMPONENT BLOCK 4 - SURFACE 3 (29),Detached Shading:Building,0.20,0.20,0.00, N/A
ShadingProperty Reflectance,Mir-SURROUNDING BUILDING - COMPONENT BLOCK 4 - SURFACE 3 (29),Detached Shading:Building,0.20,0.20,0.00, N/A
ShadingProperty Reflectance,SURROUNDING BUILDING - COMPONENT BLOCK 4 - SURFACE 4 (30),Detached Shading:Building,0.20,0.20,0.00, N/A
ShadingProperty Reflectance,Mir-SURROUNDING BUILDING - COMPONENT BLOCK 4 - SURFACE 4 (30),Detached Shading:Building,0.20,0.20,0.00, N/A
ShadingProperty Reflectance,SURROUNDING BUILDING - COMPONENT BLOCK 4 - SURFACE 5 (31),Detached Shading:Building,0.20,0.20,0.00, N/A
ShadingProperty Reflectance,Mir-SURROUNDING BUILDING - COMPONENT BLOCK 4 - SURFACE 5 (31),Detached Shading:Building,0.20,0.20,0.00, N/A
ShadingProperty Reflectance,SURROUNDING BUILDING - COMPONENT BLOCK 4 - SURFACE 6 (32),Detached Shading:Building,0.20,0.20,0.00, N/A
ShadingProperty Reflectance,Mir-SURROUNDING BUILDING - COMPONENT BLOCK 4 - SURFACE 6 (32),Detached Shading:Building,0.20,0.20,0.00, N/A
ShadingProperty Reflectance,SURROUNDING BUILDING - COMPONENT BLOCK 4 - SURFACE 7 (33),Detached Shading:Building,0.20,0.20,0.00, N/A
ShadingProperty Reflectance,Mir-SURROUNDING BUILDING - COMPONENT BLOCK 4 - SURFACE 7 (33),Detached Shading:Building,0.20,0.20,0.00, N/A
ShadingProperty Reflectance,SURROUNDING BUILDING - COMPONENT BLOCK 4 - SURFACE 8 (34),Detached Shading:Building,0.20,0.20,0.00, N/A
ShadingProperty Reflectance,Mir-SURROUNDING BUILDING - COMPONENT BLOCK 4 - SURFACE 8 (34),Detached Shading:Building,0.20,0.20,0.00, N/A
ShadingProperty Reflectance,SURROUNDING BUILDING - COMPONENT BLOCK 4 - SURFACE 9 (35),Detached Shading:Building,0.20,0.20,0.00, N/A
ShadingProperty Reflectance,Mir-SURROUNDING BUILDING - COMPONENT BLOCK 4 - SURFACE 9 (35),Detached Shading:Building,0.20,0.20,0.00, N/A
ShadingProperty Reflectance,SURROUNDING BUILDING - COMPONENT BLOCK 4 - SURFACE 10 (36),Detached Shading:Building,0.20,0.20,0.00, N/A
ShadingProperty Reflectance,Mir-SURROUNDING BUILDING - COMPONENT BLOCK 4 - SURFACE 10 (36),Detached Shading:Building,0.20,0.20,0.00, N/A
ShadingProperty Reflectance,SURROUNDING BUILDING - COMPONENT BLOCK 4 - SURFACE 11 (37),Detached Shading:Building,0.20,0.20,0.00, N/A
ShadingProperty Reflectance,Mir-SURROUNDING BUILDING - COMPONENT BLOCK 4 - SURFACE 11 (37),Detached Shading:Building,0.20,0.20,0.00, N/A
ShadingProperty Reflectance,SURROUNDING BUILDING - COMPONENT BLOCK 4 - SURFACE 12 (38),Detached Shading:Building,0.20,0.20,0.00, N/A
ShadingProperty Reflectance,Mir-SURROUNDING BUILDING - COMPONENT BLOCK 4 - SURFACE 12 (38),Detached Shading:Building,0.20,0.20,0.00, N/A
ShadingProperty Reflectance,SURROUNDING BUILDING - COMPONENT BLOCK 4 - SURFACE 13 (39),Detached Shading:Building,0.20,0.20,0.00, N/A
ShadingProperty Reflectance,Mir-SURROUNDING BUILDING - COMPONENT BLOCK 4 - SURFACE 13 (39),Detached Shading:Building,0.20,0.20,0.00, N/A
ShadingProperty Reflectance,SURROUNDING BUILDING - COMPONENT BLOCK 4 - SURFACE 14 (40),Detached Shading:Building,0.20,0.20,0.00, N/A
ShadingProperty Reflectance,Mir-SURROUNDING BUILDING - COMPONENT BLOCK 4 - SURFACE 14 (40),Detached Shading:Building,0.20,0.20,0.00, N/A
ShadingProperty Reflectance,SURROUNDING BUILDING - COMPONENT BLOCK 4 - SURFACE 15 (41),Detached Shading:Building,0.20,0.20,0.00, N/A
ShadingProperty Reflectance,Mir-SURROUNDING BUILDING - COMPONENT BLOCK 4 - SURFACE 15 (41),Detached Shading:Building,0.20,0.20,0.00, N/A
ShadingProperty Reflectance,SURROUNDING BUILDING - COMPONENT BLOCK 4 - SURFACE 16 (42),Detached Shading:Building,0.20,0.20,0.00, N/A
ShadingProperty Reflectance,Mir-SURROUNDING BUILDING - COMPONENT BLOCK 4 - SURFACE 16 (42),Detached Shading:Building,0.20,0.20,0.00, N/A
ShadingProperty Reflectance,SURROUNDING BUILDING - COMPONENT BLOCK 4 - SURFACE 17 (43),Detached Shading:Building,0.20,0.20,0.00, N/A
ShadingProperty Reflectance,Mir-SURROUNDING BUILDING - COMPONENT BLOCK 4 - SURFACE 17 (43),Detached Shading:Building,0.20,0.20,0.00, N/A
ShadingProperty Reflectance,SURROUNDING BUILDING - COMPONENT BLOCK 4 - SURFACE 18 (44),Detached Shading:Building,0.20,0.20,0.00, N/A
ShadingProperty Reflectance,Mir-SURROUNDING BUILDING - COMPONENT BLOCK 4 - SURFACE 18 (44),Detached Shading:Building,0.20,0.20,0.00, N/A
ShadingProperty Reflectance,SURROUNDING BUILDING - COMPONENT BLOCK 5 - SURFACE 1 (45),Detached Shading:Building,0.20,0.20,0.00, N/A
ShadingProperty Reflectance,Mir-SURROUNDING BUILDING - COMPONENT BLOCK 5 - SURFACE 1 (45),Detached Shading:Building,0.20,0.20,0.00, N/A
ShadingProperty Reflectance,SURROUNDING BUILDING - COMPONENT BLOCK 5 - SURFACE 2 (46),Detached Shading:Building,0.20,0.20,0.00, N/A
ShadingProperty Reflectance,Mir-SURROUNDING BUILDING - COMPONENT BLOCK 5 - SURFACE 2 (46),Detached Shading:Building,0.20,0.20,0.00, N/A
ShadingProperty Reflectance,SURROUNDING BUILDING - COMPONENT BLOCK 5 - SURFACE 3 (47),Detached Shading:Building,0.20,0.20,0.00, N/A
ShadingProperty Reflectance,Mir-SURROUNDING BUILDING - COMPONENT BLOCK 5 - SURFACE 3 (47),Detached Shading:Building,0.20,0.20,0.00, N/A
ShadingProperty Reflectance,SURROUNDING BUILDING - COMPONENT BLOCK 5 - SURFACE 4 (48),Detached Shading:Building,0.20,0.20,0.00, N/A
ShadingProperty Reflectance,Mir-SURROUNDING BUILDING - COMPONENT BLOCK 5 - SURFACE 4 (48),Detached Shading:Building,0.20,0.20,0.00, N/A
ShadingProperty Reflectance,SURROUNDING BUILDING - COMPONENT BLOCK 5 - SURFACE 5 (49),Detached Shading:Building,0.20,0.20,0.00, N/A
ShadingProperty Reflectance,Mir-SURROUNDING BUILDING - COMPONENT BLOCK 5 - SURFACE 5 (49),Detached Shading:Building,0.20,0.20,0.00, N/A
ShadingProperty Reflectance,SURROUNDING BUILDING - COMPONENT BLOCK 5 - SURFACE 6 (50),Detached Shading:Building,0.20,0.20,0.00, N/A
ShadingProperty Reflectance,Mir-SURROUNDING BUILDING - COMPONENT BLOCK 5 - SURFACE 6 (50),Detached Shading:Building,0.20,0.20,0.00, N/A
ShadingProperty Reflectance,SURROUNDING BUILDING - COMPONENT BLOCK 5 - SURFACE 7 (51),Detached Shading:Building,0.20,0.20,0.00, N/A
ShadingProperty Reflectance,Mir-SURROUNDING BUILDING - COMPONENT BLOCK 5 - SURFACE 7 (51),Detached Shading:Building,0.20,0.20,0.00, N/A
ShadingProperty Reflectance,SURROUNDING BUILDING - COMPONENT BLOCK 5 - SURFACE 8 (52),Detached Shading:Building,0.20,0.20,0.00, N/A
ShadingProperty Reflectance,Mir-SURROUNDING BUILDING - COMPONENT BLOCK 5 - SURFACE 8 (52),Detached Shading:Building,0.20,0.20,0.00, N/A
ShadingProperty Reflectance,SURROUNDING BUILDING - COMPONENT BLOCK 5 - SURFACE 9 (53),Detached Shading:Building,0.20,0.20,0.00, N/A
ShadingProperty Reflectance,Mir-SURROUNDING BUILDING - COMPONENT BLOCK 5 - SURFACE 9 (53),Detached Shading:Building,0.20,0.20,0.00, N/A
ShadingProperty Reflectance,SURROUNDING BUILDING - COMPONENT BLOCK 5 - SURFACE 10 (54),Detached Shading:Building,0.20,0.20,0.00, N/A
ShadingProperty Reflectance,Mir-SURROUNDING BUILDING - COMPONENT BLOCK 5 - SURFACE 10 (54),Detached Shading:Building,0.20,0.20,0.00, N/A
ShadingProperty Reflectance,SURROUNDING BUILDING - COMPONENT BLOCK 5 - SURFACE 11 (55),Detached Shading:Building,0.20,0.20,0.00, N/A
ShadingProperty Reflectance,Mir-SURROUNDING BUILDING - COMPONENT BLOCK 5 - SURFACE 11 (55),Detached Shading:Building,0.20,0.20,0.00, N/A
ShadingProperty Reflectance,SURROUNDING BUILDING - COMPONENT BLOCK 5 - SURFACE 12 (56),Detached Shading:Building,0.20,0.20,0.00, N/A
ShadingProperty Reflectance,Mir-SURROUNDING BUILDING - COMPONENT BLOCK 5 - SURFACE 12 (56),Detached Shading:Building,0.20,0.20,0.00, N/A
ShadingProperty Reflectance,SURROUNDING BUILDING - COMPONENT BLOCK 5 - SURFACE 13 (57),Detached Shading:Building,0.20,0.20,0.00, N/A
ShadingProperty Reflectance,Mir-SURROUNDING BUILDING - COMPONENT BLOCK 5 - SURFACE 13 (57),Detached Shading:Building,0.20,0.20,0.00, N/A
ShadingProperty Reflectance,SURROUNDING BUILDING - COMPONENT BLOCK 5 - SURFACE 14 (58),Detached Shading:Building,0.20,0.20,0.00, N/A
ShadingProperty Reflectance,Mir-SURROUNDING BUILDING - COMPONENT BLOCK 5 - SURFACE 14 (58),Detached Shading:Building,0.20,0.20,0.00, N/A
ShadingProperty Reflectance,SURROUNDING BUILDING - COMPONENT BLOCK 6 - SURFACE 1 (59),Detached Shading:Building,0.20,0.20,0.00, N/A
ShadingProperty Reflectance,Mir-SURROUNDING BUILDING - COMPONENT BLOCK 6 - SURFACE 1 (59),Detached Shading:Building,0.20,0.20,0.00, N/A
ShadingProperty Reflectance,SURROUNDING BUILDING - COMPONENT BLOCK 6 - SURFACE 2 (60),Detached Shading:Building,0.20,0.20,0.00, N/A
ShadingProperty Reflectance,Mir-SURROUNDING BUILDING - COMPONENT BLOCK 6 - SURFACE 2 (60),Detached Shading:Building,0.20,0.20,0.00, N/A
ShadingProperty Reflectance,SURROUNDING BUILDING - COMPONENT BLOCK 6 - SURFACE 3 (61),Detached Shading:Building,0.20,0.20,0.00, N/A
ShadingProperty Reflectance,Mir-SURROUNDING BUILDING - COMPONENT BLOCK 6 - SURFACE 3 (61),Detached Shading:Building,0.20,0.20,0.00, N/A
ShadingProperty Reflectance,SURROUNDING BUILDING - COMPONENT BLOCK 6 - SURFACE 4 (62),Detached Shading:Building,0.20,0.20,0.00, N/A
ShadingProperty Reflectance,Mir-SURROUNDING BUILDING - COMPONENT BLOCK 6 - SURFACE 4 (62),Detached Shading:Building,0.20,0.20,0.00, N/A
ShadingProperty Reflectance,SURROUNDING BUILDING - COMPONENT BLOCK 6 - SURFACE 5 (63),Detached Shading:Building,0.20,0.20,0.00, N/A
ShadingProperty Reflectance,Mir-SURROUNDING BUILDING - COMPONENT BLOCK 6 - SURFACE 5 (63),Detached Shading:Building,0.20,0.20,0.00, N/A
ShadingProperty Reflectance,SURROUNDING BUILDING - COMPONENT BLOCK 6 - SURFACE 6 (64),Detached Shading:Building,0.20,0.20,0.00, N/A
ShadingProperty Reflectance,Mir-SURROUNDING BUILDING - COMPONENT BLOCK 6 - SURFACE 6 (64),Detached Shading:Building,0.20,0.20,0.00, N/A
ShadingProperty Reflectance,SURROUNDING BUILDING - COMPONENT BLOCK 6 - SURFACE 7 (65),Detached Shading:Building,0.20,0.20,0.00, N/A
ShadingProperty Reflectance,Mir-SURROUNDING BUILDING - COMPONENT BLOCK 6 - SURFACE 7 (65),Detached Shading:Building,0.20,0.20,0.00, N/A
ShadingProperty Reflectance,SURROUNDING BUILDING - COMPONENT BLOCK 6 - SURFACE 8 (66),Detached Shading:Building,0.20,0.20,0.00, N/A
ShadingProperty Reflectance,Mir-SURROUNDING BUILDING - COMPONENT BLOCK 6 - SURFACE 8 (66),Detached Shading:Building,0.20,0.20,0.00, N/A
ShadingProperty Reflectance,SURROUNDING BUILDING - COMPONENT BLOCK 6 - SURFACE 9 (67),Detached Shading:Building,0.20,0.20,0.00, N/A
ShadingProperty Reflectance,Mir-SURROUNDING BUILDING - COMPONENT BLOCK 6 - SURFACE 9 (67),Detached Shading:Building,0.20,0.20,0.00, N/A
ShadingProperty Reflectance,SURROUNDING BUILDING - COMPONENT BLOCK 6 - SURFACE 10 (68),Detached Shading:Building,0.20,0.20,0.00, N/A
ShadingProperty Reflectance,Mir-SURROUNDING BUILDING - COMPONENT BLOCK 6 - SURFACE 10 (68),Detached Shading:Building,0.20,0.20,0.00, N/A
ShadingProperty Reflectance,SURROUNDING BUILDING - COMPONENT BLOCK 6 - SURFACE 11 (69),Detached Shading:Building,0.20,0.20,0.00, N/A
ShadingProperty Reflectance,Mir-SURROUNDING BUILDING - COMPONENT BLOCK 6 - SURFACE 11 (69),Detached Shading:Building,0.20,0.20,0.00, N/A
ShadingProperty Reflectance,SURROUNDING BUILDING - COMPONENT BLOCK 6 - SURFACE 12 (70),Detached Shading:Building,0.20,0.20,0.00, N/A
ShadingProperty Reflectance,Mir-SURROUNDING BUILDING - COMPONENT BLOCK 6 - SURFACE 12 (70),Detached Shading:Building,0.20,0.20,0.00, N/A
ShadingProperty Reflectance,SURROUNDING BUILDING - COMPONENT BLOCK 6 - SURFACE 13 (71),Detached Shading:Building,0.20,0.20,0.00, N/A
ShadingProperty Reflectance,Mir-SURROUNDING BUILDING - COMPONENT BLOCK 6 - SURFACE 13 (71),Detached Shading:Building,0.20,0.20,0.00, N/A
ShadingProperty Reflectance,SURROUNDING BUILDING - COMPONENT BLOCK 6 - SURFACE 14 (72),Detached Shading:Building,0.20,0.20,0.00, N/A
ShadingProperty Reflectance,Mir-SURROUNDING BUILDING - COMPONENT BLOCK 6 - SURFACE 14 (72),Detached Shading:Building,0.20,0.20,0.00, N/A
ShadingProperty Reflectance,SURROUNDING BUILDING - COMPONENT BLOCK 6 - SURFACE 15 (73),Detached Shading:Building,0.20,0.20,0.00, N/A
ShadingProperty Reflectance,Mir-SURROUNDING BUILDING - COMPONENT BLOCK 6 - SURFACE 15 (73),Detached Shading:Building,0.20,0.20,0.00, N/A
ShadingProperty Reflectance,SURROUNDING BUILDING - COMPONENT BLOCK 6 - SURFACE 16 (74),Detached Shading:Building,0.20,0.20,0.00, N/A
ShadingProperty Reflectance,Mir-SURROUNDING BUILDING - COMPONENT BLOCK 6 - SURFACE 16 (74),Detached Shading:Building,0.20,0.20,0.00, N/A
ShadingProperty Reflectance,SURROUNDING BUILDING - COMPONENT BLOCK 6 - SURFACE 17 (75),Detached Shading:Building,0.20,0.20,0.00, N/A
ShadingProperty Reflectance,Mir-SURROUNDING BUILDING - COMPONENT BLOCK 6 - SURFACE 17 (75),Detached Shading:Building,0.20,0.20,0.00, N/A
ShadingProperty Reflectance,SURROUNDING BUILDING - COMPONENT BLOCK 6 - SURFACE 18 (76),Detached Shading:Building,0.20,0.20,0.00, N/A
ShadingProperty Reflectance,Mir-SURROUNDING BUILDING - COMPONENT BLOCK 6 - SURFACE 18 (76),Detached Shading:Building,0.20,0.20,0.00, N/A
ShadingProperty Reflectance,SURROUNDING BUILDING - COMPONENT BLOCK 6 - SURFACE 19 (77),Detached Shading:Building,0.20,0.20,0.00, N/A
ShadingProperty Reflectance,Mir-SURROUNDING BUILDING - COMPONENT BLOCK 6 - SURFACE 19 (77),Detached Shading:Building,0.20,0.20,0.00, N/A
ShadingProperty Reflectance,SURROUNDING BUILDING - COMPONENT BLOCK 6 - SURFACE 20 (78),Detached Shading:Building,0.20,0.20,0.00, N/A
ShadingProperty Reflectance,Mir-SURROUNDING BUILDING - COMPONENT BLOCK 6 - SURFACE 20 (78),Detached Shading:Building,0.20,0.20,0.00, N/A
ShadingProperty Reflectance,SURROUNDING BUILDING - COMPONENT BLOCK 6 - SURFACE 21 (79),Detached Shading:Building,0.20,0.20,0.00, N/A
ShadingProperty Reflectance,Mir-SURROUNDING BUILDING - COMPONENT BLOCK 6 - SURFACE 21 (79),Detached Shading:Building,0.20,0.20,0.00, N/A
ShadingProperty Reflectance,SURROUNDING BUILDING - COMPONENT BLOCK 6 - SURFACE 22 (80),Detached Shading:Building,0.20,0.20,0.00, N/A
ShadingProperty Reflectance,Mir-SURROUNDING BUILDING - COMPONENT BLOCK 6 - SURFACE 22 (80),Detached Shading:Building,0.20,0.20,0.00, N/A
ShadingProperty Reflectance,SURROUNDING BUILDING - COMPONENT BLOCK 6 - SURFACE 23 (81),Detached Shading:Building,0.20,0.20,0.00, N/A
ShadingProperty Reflectance,Mir-SURROUNDING BUILDING - COMPONENT BLOCK 6 - SURFACE 23 (81),Detached Shading:Building,0.20,0.20,0.00, N/A
ShadingProperty Reflectance,SURROUNDING BUILDING - COMPONENT BLOCK 6 - SURFACE 24 (82),Detached Shading:Building,0.20,0.20,0.00, N/A
ShadingProperty Reflectance,Mir-SURROUNDING BUILDING - COMPONENT BLOCK 6 - SURFACE 24 (82),Detached Shading:Building,0.20,0.20,0.00, N/A
ShadingProperty Reflectance,SURROUNDING BUILDING - COMPONENT BLOCK 6 - SURFACE 25 (83),Detached Shading:Building,0.20,0.20,0.00, N/A
ShadingProperty Reflectance,Mir-SURROUNDING BUILDING - COMPONENT BLOCK 6 - SURFACE 25 (83),Detached Shading:Building,0.20,0.20,0.00, N/A
ShadingProperty Reflectance,SURROUNDING BUILDING - COMPONENT BLOCK 6 - SURFACE 26 (84),Detached Shading:Building,0.20,0.20,0.00, N/A
ShadingProperty Reflectance,Mir-SURROUNDING BUILDING - COMPONENT BLOCK 6 - SURFACE 26 (84),Detached Shading:Building,0.20,0.20,0.00, N/A
ShadingProperty Reflectance,SURROUNDING BUILDING - COMPONENT BLOCK 6 - SURFACE 27 (85),Detached Shading:Building,0.20,0.20,0.00, N/A
ShadingProperty Reflectance,Mir-SURROUNDING BUILDING - COMPONENT BLOCK 6 - SURFACE 27 (85),Detached Shading:Building,0.20,0.20,0.00, N/A
ShadingProperty Reflectance,SURROUNDING BUILDING - COMPONENT BLOCK 6 - SURFACE 28 (86),Detached Shading:Building,0.20,0.20,0.00, N/A
ShadingProperty Reflectance,Mir-SURROUNDING BUILDING - COMPONENT BLOCK 6 - SURFACE 28 (86),Detached Shading:Building,0.20,0.20,0.00, N/A
ShadingProperty Reflectance,SURROUNDING BUILDING - COMPONENT BLOCK 6 - SURFACE 29 (87),Detached Shading:Building,0.20,0.20,0.00, N/A
ShadingProperty Reflectance,Mir-SURROUNDING BUILDING - COMPONENT BLOCK 6 - SURFACE 29 (87),Detached Shading:Building,0.20,0.20,0.00, N/A
ShadingProperty Reflectance,SURROUNDING BUILDING - COMPONENT BLOCK 6 - SURFACE 30 (88),Detached Shading:Building,0.20,0.20,0.00, N/A
ShadingProperty Reflectance,Mir-SURROUNDING BUILDING - COMPONENT BLOCK 6 - SURFACE 30 (88),Detached Shading:Building,0.20,0.20,0.00, N/A
ShadingProperty Reflectance,SURROUNDING BUILDING - COMPONENT BLOCK 6 - SURFACE 31 (89),Detached Shading:Building,0.20,0.20,0.00, N/A
ShadingProperty Reflectance,Mir-SURROUNDING BUILDING - COMPONENT BLOCK 6 - SURFACE 31 (89),Detached Shading:Building,0.20,0.20,0.00, N/A
ShadingProperty Reflectance,SURROUNDING BUILDING - COMPONENT BLOCK 6 - SURFACE 32 (90),Detached Shading:Building,0.20,0.20,0.00, N/A
ShadingProperty Reflectance,Mir-SURROUNDING BUILDING - COMPONENT BLOCK 6 - SURFACE 32 (90),Detached Shading:Building,0.20,0.20,0.00, N/A
ShadingProperty Reflectance,SURROUNDING BUILDING - COMPONENT BLOCK 7 - SURFACE 1 (91),Detached Shading:Building,0.20,0.20,0.00, N/A
ShadingProperty Reflectance,Mir-SURROUNDING BUILDING - COMPONENT BLOCK 7 - SURFACE 1 (91),Detached Shading:Building,0.20,0.20,0.00, N/A
ShadingProperty Reflectance,SURROUNDING BUILDING - COMPONENT BLOCK 7 - SURFACE 2 (92),Detached Shading:Building,0.20,0.20,0.00, N/A
ShadingProperty Reflectance,Mir-SURROUNDING BUILDING - COMPONENT BLOCK 7 - SURFACE 2 (92),Detached Shading:Building,0.20,0.20,0.00, N/A
ShadingProperty Reflectance,SURROUNDING BUILDING - COMPONENT BLOCK 7 - SURFACE 3 (93),Detached Shading:Building,0.20,0.20,0.00, N/A
ShadingProperty Reflectance,Mir-SURROUNDING BUILDING - COMPONENT BLOCK 7 - SURFACE 3 (93),Detached Shading:Building,0.20,0.20,0.00, N/A
ShadingProperty Reflectance,SURROUNDING BUILDING - COMPONENT BLOCK 7 - SURFACE 4 (94),Detached Shading:Building,0.20,0.20,0.00, N/A
ShadingProperty Reflectance,Mir-SURROUNDING BUILDING - COMPONENT BLOCK 7 - SURFACE 4 (94),Detached Shading:Building,0.20,0.20,0.00, N/A
ShadingProperty Reflectance,SURROUNDING BUILDING - COMPONENT BLOCK 7 - SURFACE 5 (95),Detached Shading:Building,0.20,0.20,0.00, N/A
ShadingProperty Reflectance,Mir-SURROUNDING BUILDING - COMPONENT BLOCK 7 - SURFACE 5 (95),Detached Shading:Building,0.20,0.20,0.00, N/A
ShadingProperty Reflectance,SURROUNDING BUILDING - COMPONENT BLOCK 7 - SURFACE 6 (96),Detached Shading:Building,0.20,0.20,0.00, N/A
ShadingProperty Reflectance,Mir-SURROUNDING BUILDING - COMPONENT BLOCK 7 - SURFACE 6 (96),Detached Shading:Building,0.20,0.20,0.00, N/A
ShadingProperty Reflectance,SURROUNDING BUILDING - COMPONENT BLOCK 7 - SURFACE 7 (97),Detached Shading:Building,0.20,0.20,0.00, N/A
ShadingProperty Reflectance,Mir-SURROUNDING BUILDING - COMPONENT BLOCK 7 - SURFACE 7 (97),Detached Shading:Building,0.20,0.20,0.00, N/A
ShadingProperty Reflectance,SURROUNDING BUILDING - COMPONENT BLOCK 7 - SURFACE 8 (98),Detached Shading:Building,0.20,0.20,0.00, N/A
ShadingProperty Reflectance,Mir-SURROUNDING BUILDING - COMPONENT BLOCK 7 - SURFACE 8 (98),Detached Shading:Building,0.20,0.20,0.00, N/A
ShadingProperty Reflectance,SURROUNDING BUILDING - COMPONENT BLOCK 7 - SURFACE 9 (99),Detached Shading:Building,0.20,0.20,0.00, N/A
ShadingProperty Reflectance,Mir-SURROUNDING BUILDING - COMPONENT BLOCK 7 - SURFACE 9 (99),Detached Shading:Building,0.20,0.20,0.00, N/A
ShadingProperty Reflectance,SURROUNDING BUILDING - COMPONENT BLOCK 7 - SURFACE 10 (100),Detached Shading:Building,0.20,0.20,0.00, N/A
ShadingProperty Reflectance,Mir-SURROUNDING BUILDING - COMPONENT BLOCK 7 - SURFACE 10 (100),Detached Shading:Building,0.20,0.20,0.00, N/A
ShadingProperty Reflectance,SURROUNDING BUILDING - COMPONENT BLOCK 7 - SURFACE 11 (101),Detached Shading:Building,0.20,0.20,0.00, N/A
ShadingProperty Reflectance,Mir-SURROUNDING BUILDING - COMPONENT BLOCK 7 - SURFACE 11 (101),Detached Shading:Building,0.20,0.20,0.00, N/A
ShadingProperty Reflectance,SURROUNDING BUILDING - COMPONENT BLOCK 7 - SURFACE 12 (102),Detached Shading:Building,0.20,0.20,0.00, N/A
ShadingProperty Reflectance,Mir-SURROUNDING BUILDING - COMPONENT BLOCK 7 - SURFACE 12 (102),Detached Shading:Building,0.20,0.20,0.00, N/A
ShadingProperty Reflectance,SURROUNDING BUILDING - COMPONENT BLOCK 7 - SURFACE 13 (103),Detached Shading:Building,0.20,0.20,0.00, N/A
ShadingProperty Reflectance,Mir-SURROUNDING BUILDING - COMPONENT BLOCK 7 - SURFACE 13 (103),Detached Shading:Building,0.20,0.20,0.00, N/A
ShadingProperty Reflectance,SURROUNDING BUILDING - COMPONENT BLOCK 7 - SURFACE 14 (104),Detached Shading:Building,0.20,0.20,0.00, N/A
ShadingProperty Reflectance,Mir-SURROUNDING BUILDING - COMPONENT BLOCK 7 - SURFACE 14 (104),Detached Shading:Building,0.20,0.20,0.00, N/A
ShadingProperty Reflectance,SURROUNDING BUILDING - COMPONENT BLOCK 7 - SURFACE 15 (105),Detached Shading:Building,0.20,0.20,0.00, N/A
ShadingProperty Reflectance,Mir-SURROUNDING BUILDING - COMPONENT BLOCK 7 - SURFACE 15 (105),Detached Shading:Building,0.20,0.20,0.00, N/A
ShadingProperty Reflectance,SURROUNDING BUILDING - COMPONENT BLOCK 7 - SURFACE 16 (106),Detached Shading:Building,0.20,0.20,0.00, N/A
ShadingProperty Reflectance,Mir-SURROUNDING BUILDING - COMPONENT BLOCK 7 - SURFACE 16 (106),Detached Shading:Building,0.20,0.20,0.00, N/A
ShadingProperty Reflectance,SURROUNDING BUILDING - COMPONENT BLOCK 7 - SURFACE 17 (107),Detached Shading:Building,0.20,0.20,0.00, N/A
ShadingProperty Reflectance,Mir-SURROUNDING BUILDING - COMPONENT BLOCK 7 - SURFACE 17 (107),Detached Shading:Building,0.20,0.20,0.00, N/A
ShadingProperty Reflectance,SURROUNDING BUILDING - COMPONENT BLOCK 7 - SURFACE 18 (108),Detached Shading:Building,0.20,0.20,0.00, N/A
ShadingProperty Reflectance,Mir-SURROUNDING BUILDING - COMPONENT BLOCK 7 - SURFACE 18 (108),Detached Shading:Building,0.20,0.20,0.00, N/A
ShadingProperty Reflectance,SURROUNDING BUILDING - COMPONENT BLOCK 7 - SURFACE 19 (109),Detached Shading:Building,0.20,0.20,0.00, N/A
ShadingProperty Reflectance,Mir-SURROUNDING BUILDING - COMPONENT BLOCK 7 - SURFACE 19 (109),Detached Shading:Building,0.20,0.20,0.00, N/A
ShadingProperty Reflectance,SURROUNDING BUILDING - COMPONENT BLOCK 7 - SURFACE 20 (110),Detached Shading:Building,0.20,0.20,0.00, N/A
ShadingProperty Reflectance,Mir-SURROUNDING BUILDING - COMPONENT BLOCK 7 - SURFACE 20 (110),Detached Shading:Building,0.20,0.20,0.00, N/A
ShadingProperty Reflectance,SURROUNDING BUILDING - COMPONENT BLOCK 7 - SURFACE 21 (111),Detached Shading:Building,0.20,0.20,0.00, N/A
ShadingProperty Reflectance,Mir-SURROUNDING BUILDING - COMPONENT BLOCK 7 - SURFACE 21 (111),Detached Shading:Building,0.20,0.20,0.00, N/A
ShadingProperty Reflectance,SURROUNDING BUILDING - COMPONENT BLOCK 7 - SURFACE 22 (112),Detached Shading:Building,0.20,0.20,0.00, N/A
ShadingProperty Reflectance,Mir-SURROUNDING BUILDING - COMPONENT BLOCK 7 - SURFACE 22 (112),Detached Shading:Building,0.20,0.20,0.00, N/A
ShadingProperty Reflectance,SURROUNDING BUILDING - COMPONENT BLOCK 7 - SURFACE 23 (113),Detached Shading:Building,0.20,0.20,0.00, N/A
ShadingProperty Reflectance,Mir-SURROUNDING BUILDING - COMPONENT BLOCK 7 - SURFACE 23 (113),Detached Shading:Building,0.20,0.20,0.00, N/A
ShadingProperty Reflectance,SURROUNDING BUILDING - COMPONENT BLOCK 7 - SURFACE 24 (114),Detached Shading:Building,0.20,0.20,0.00, N/A
ShadingProperty Reflectance,Mir-SURROUNDING BUILDING - COMPONENT BLOCK 7 - SURFACE 24 (114),Detached Shading:Building,0.20,0.20,0.00, N/A
ShadingProperty Reflectance,SURROUNDING BUILDING - COMPONENT BLOCK 7 - SURFACE 25 (115),Detached Shading:Building,0.20,0.20,0.00, N/A
ShadingProperty Reflectance,Mir-SURROUNDING BUILDING - COMPONENT BLOCK 7 - SURFACE 25 (115),Detached Shading:Building,0.20,0.20,0.00, N/A
ShadingProperty Reflectance,SURROUNDING BUILDING - COMPONENT BLOCK 7 - SURFACE 26 (116),Detached Shading:Building,0.20,0.20,0.00, N/A
ShadingProperty Reflectance,Mir-SURROUNDING BUILDING - COMPONENT BLOCK 7 - SURFACE 26 (116),Detached Shading:Building,0.20,0.20,0.00, N/A
ShadingProperty Reflectance,SURROUNDING BUILDING - COMPONENT BLOCK 7 - SURFACE 27 (117),Detached Shading:Building,0.20,0.20,0.00, N/A
ShadingProperty Reflectance,Mir-SURROUNDING BUILDING - COMPONENT BLOCK 7 - SURFACE 27 (117),Detached Shading:Building,0.20,0.20,0.00, N/A
ShadingProperty Reflectance,SURROUNDING BUILDING - COMPONENT BLOCK 7 - SURFACE 28 (118),Detached Shading:Building,0.20,0.20,0.00, N/A
ShadingProperty Reflectance,Mir-SURROUNDING BUILDING - COMPONENT BLOCK 7 - SURFACE 28 (118),Detached Shading:Building,0.20,0.20,0.00, N/A
ShadingProperty Reflectance,SURROUNDING BUILDING - COMPONENT BLOCK 7 - SURFACE 29 (119),Detached Shading:Building,0.20,0.20,0.00, N/A
ShadingProperty Reflectance,Mir-SURROUNDING BUILDING - COMPONENT BLOCK 7 - SURFACE 29 (119),Detached Shading:Building,0.20,0.20,0.00, N/A
ShadingProperty Reflectance,SURROUNDING BUILDING - COMPONENT BLOCK 7 - SURFACE 30 (120),Detached Shading:Building,0.20,0.20,0.00, N/A
ShadingProperty Reflectance,Mir-SURROUNDING BUILDING - COMPONENT BLOCK 7 - SURFACE 30 (120),Detached Shading:Building,0.20,0.20,0.00, N/A
ShadingProperty Reflectance,SURROUNDING BUILDING - COMPONENT BLOCK 7 - SURFACE 31 (121),Detached Shading:Building,0.20,0.20,0.00, N/A
ShadingProperty Reflectance,Mir-SURROUNDING BUILDING - COMPONENT BLOCK 7 - SURFACE 31 (121),Detached Shading:Building,0.20,0.20,0.00, N/A
ShadingProperty Reflectance,SURROUNDING BUILDING - COMPONENT BLOCK 7 - SURFACE 32 (122),Detached Shading:Building,0.20,0.20,0.00, N/A
ShadingProperty Reflectance,Mir-SURROUNDING BUILDING - COMPONENT BLOCK 7 - SURFACE 32 (122),Detached Shading:Building,0.20,0.20,0.00, N/A
ShadingProperty Reflectance,SURROUNDING BUILDING - COMPONENT BLOCK 7 - SURFACE 33 (123),Detached Shading:Building,0.20,0.20,0.00, N/A
ShadingProperty Reflectance,Mir-SURROUNDING BUILDING - COMPONENT BLOCK 7 - SURFACE 33 (123),Detached Shading:Building,0.20,0.20,0.00, N/A
ShadingProperty Reflectance,SURROUNDING BUILDING - COMPONENT BLOCK 7 - SURFACE 34 (124),Detached Shading:Building,0.20,0.20,0.00, N/A
ShadingProperty Reflectance,Mir-SURROUNDING BUILDING - COMPONENT BLOCK 7 - SURFACE 34 (124),Detached Shading:Building,0.20,0.20,0.00, N/A
ShadingProperty Reflectance,SURROUNDING BUILDING - COMPONENT BLOCK 7 - SURFACE 35 (125),Detached Shading:Building,0.20,0.20,0.00, N/A
ShadingProperty Reflectance,Mir-SURROUNDING BUILDING - COMPONENT BLOCK 7 - SURFACE 35 (125),Detached Shading:Building,0.20,0.20,0.00, N/A
ShadingProperty Reflectance,SURROUNDING BUILDING - COMPONENT BLOCK 7 - SURFACE 36 (126),Detached Shading:Building,0.20,0.20,0.00, N/A
ShadingProperty Reflectance,Mir-SURROUNDING BUILDING - COMPONENT BLOCK 7 - SURFACE 36 (126),Detached Shading:Building,0.20,0.20,0.00, N/A
ShadingProperty Reflectance,SURROUNDING BUILDING - COMPONENT BLOCK 7 - SURFACE 37 (127),Detached Shading:Building,0.20,0.20,0.00, N/A
ShadingProperty Reflectance,Mir-SURROUNDING BUILDING - COMPONENT BLOCK 7 - SURFACE 37 (127),Detached Shading:Building,0.20,0.20,0.00, N/A
ShadingProperty Reflectance,SURROUNDING BUILDING - COMPONENT BLOCK 8 - SURFACE 1 (128),Detached Shading:Building,0.20,0.20,0.00, N/A
ShadingProperty Reflectance,Mir-SURROUNDING BUILDING - COMPONENT BLOCK 8 - SURFACE 1 (128),Detached Shading:Building,0.20,0.20,0.00, N/A
ShadingProperty Reflectance,BUILDING 1 - COMPONENT BLOCK 25 - SURFACE 1 (129),Detached Shading:Building,0.40,0.40,0.00, N/A
ShadingProperty Reflectance,Mir-BUILDING 1 - COMPONENT BLOCK 25 - SURFACE 1 (129),Detached Shading:Building,0.40,0.40,0.00, N/A
ShadingProperty Reflectance,BUILDING 1 - COMPONENT BLOCK 25 - SURFACE 2 (130),Detached Shading:Building,0.40,0.40,0.00, N/A
ShadingProperty Reflectance,Mir-BUILDING 1 - COMPONENT BLOCK 25 - SURFACE 2 (130),Detached Shading:Building,0.40,0.40,0.00, N/A
ShadingProperty Reflectance,BUILDING 1 - COMPONENT BLOCK 25 - SURFACE 3 (131),Detached Shading:Building,0.40,0.40,0.00, N/A
ShadingProperty Reflectance,Mir-BUILDING 1 - COMPONENT BLOCK 25 - SURFACE 3 (131),Detached Shading:Building,0.40,0.40,0.00, N/A
ShadingProperty Reflectance,BUILDING 1 - COMPONENT BLOCK 25 - SURFACE 4 (132),Detached Shading:Building,0.40,0.40,0.00, N/A
ShadingProperty Reflectance,Mir-BUILDING 1 - COMPONENT BLOCK 25 - SURFACE 4 (132),Detached Shading:Building,0.40,0.40,0.00, N/A
ShadingProperty Reflectance,BUILDING 1 - COMPONENT BLOCK 25 - SURFACE 5 (133),Detached Shading:Building,0.40,0.40,0.00, N/A
ShadingProperty Reflectance,Mir-BUILDING 1 - COMPONENT BLOCK 25 - SURFACE 5 (133),Detached Shading:Building,0.40,0.40,0.00, N/A
ShadingProperty Reflectance,BUILDING 1 - COMPONENT BLOCK 25 - SURFACE 6 (134),Detached Shading:Building,0.40,0.40,0.00, N/A
ShadingProperty Reflectance,Mir-BUILDING 1 - COMPONENT BLOCK 25 - SURFACE 6 (134),Detached Shading:Building,0.40,0.40,0.00, N/A
ShadingProperty Reflectance,BUILDING 1 - COMPONENT BLOCK 18 - SURFACE 1 (135),Detached Shading:Building,0.40,0.40,0.00, N/A
ShadingProperty Reflectance,Mir-BUILDING 1 - COMPONENT BLOCK 18 - SURFACE 1 (135),Detached Shading:Building,0.40,0.40,0.00, N/A
ShadingProperty Reflectance,BUILDING 1 - COMPONENT BLOCK 18 - SURFACE 2 (136),Detached Shading:Building,0.40,0.40,0.00, N/A
ShadingProperty Reflectance,Mir-BUILDING 1 - COMPONENT BLOCK 18 - SURFACE 2 (136),Detached Shading:Building,0.40,0.40,0.00, N/A
ShadingProperty Reflectance,BUILDING 1 - COMPONENT BLOCK 18 - SURFACE 3 (137),Detached Shading:Building,0.40,0.40,0.00, N/A
ShadingProperty Reflectance,Mir-BUILDING 1 - COMPONENT BLOCK 18 - SURFACE 3 (137),Detached Shading:Building,0.40,0.40,0.00, N/A
ShadingProperty Reflectance,BUILDING 1 - COMPONENT BLOCK 18 - SURFACE 4 (138),Detached Shading:Building,0.40,0.40,0.00, N/A
ShadingProperty Reflectance,Mir-BUILDING 1 - COMPONENT BLOCK 18 - SURFACE 4 (138),Detached Shading:Building,0.40,0.40,0.00, N/A
ShadingProperty Reflectance,BUILDING 1 - COMPONENT BLOCK 18 - SURFACE 5 (139),Detached Shading:Building,0.40,0.40,0.00, N/A
ShadingProperty Reflectance,Mir-BUILDING 1 - COMPONENT BLOCK 18 - SURFACE 5 (139),Detached Shading:Building,0.40,0.40,0.00, N/A
ShadingProperty Reflectance,BUILDING 1 - COMPONENT BLOCK 18 - SURFACE 6 (140),Detached Shading:Building,0.40,0.40,0.00, N/A
ShadingProperty Reflectance,Mir-BUILDING 1 - COMPONENT BLOCK 18 - SURFACE 6 (140),Detached Shading:Building,0.40,0.40,0.00, N/A
ShadingProperty Reflectance,BUILDING 1 - COMPONENT BLOCK 30 - SURFACE 1 (141),Detached Shading:Building,0.40,0.40,0.00, N/A
ShadingProperty Reflectance,Mir-BUILDING 1 - COMPONENT BLOCK 30 - SURFACE 1 (141),Detached Shading:Building,0.40,0.40,0.00, N/A
ShadingProperty Reflectance,BUILDING 1 - COMPONENT BLOCK 30 - SURFACE 2 (142),Detached Shading:Building,0.40,0.40,0.00, N/A
ShadingProperty Reflectance,Mir-BUILDING 1 - COMPONENT BLOCK 30 - SURFACE 2 (142),Detached Shading:Building,0.40,0.40,0.00, N/A
ShadingProperty Reflectance,BUILDING 1 - COMPONENT BLOCK 30 - SURFACE 3 (143),Detached Shading:Building,0.40,0.40,0.00, N/A
ShadingProperty Reflectance,Mir-BUILDING 1 - COMPONENT BLOCK 30 - SURFACE 3 (143),Detached Shading:Building,0.40,0.40,0.00, N/A
ShadingProperty Reflectance,BUILDING 1 - COMPONENT BLOCK 30 - SURFACE 4 (144),Detached Shading:Building,0.40,0.40,0.00, N/A
ShadingProperty Reflectance,Mir-BUILDING 1 - COMPONENT BLOCK 30 - SURFACE 4 (144),Detached Shading:Building,0.40,0.40,0.00, N/A
ShadingProperty Reflectance,BUILDING 1 - COMPONENT BLOCK 30 - SURFACE 5 (145),Detached Shading:Building,0.40,0.40,0.00, N/A
ShadingProperty Reflectance,Mir-BUILDING 1 - COMPONENT BLOCK 30 - SURFACE 5 (145),Detached Shading:Building,0.40,0.40,0.00, N/A
ShadingProperty Reflectance,BUILDING 1 - COMPONENT BLOCK 30 - SURFACE 6 (146),Detached Shading:Building,0.40,0.40,0.00, N/A
ShadingProperty Reflectance,Mir-BUILDING 1 - COMPONENT BLOCK 30 - SURFACE 6 (146),Detached Shading:Building,0.40,0.40,0.00, N/A
ShadingProperty Reflectance,BUILDING 1 - COMPONENT BLOCK 31 - SURFACE 1 (147),Detached Shading:Building,0.40,0.40,0.00, N/A
ShadingProperty Reflectance,Mir-BUILDING 1 - COMPONENT BLOCK 31 - SURFACE 1 (147),Detached Shading:Building,0.40,0.40,0.00, N/A
ShadingProperty Reflectance,BUILDING 1 - COMPONENT BLOCK 31 - SURFACE 2 (148),Detached Shading:Building,0.40,0.40,0.00, N/A
ShadingProperty Reflectance,Mir-BUILDING 1 - COMPONENT BLOCK 31 - SURFACE 2 (148),Detached Shading:Building,0.40,0.40,0.00, N/A
ShadingProperty Reflectance,BUILDING 1 - COMPONENT BLOCK 31 - SURFACE 3 (149),Detached Shading:Building,0.40,0.40,0.00, N/A
ShadingProperty Reflectance,Mir-BUILDING 1 - COMPONENT BLOCK 31 - SURFACE 3 (149),Detached Shading:Building,0.40,0.40,0.00, N/A
ShadingProperty Reflectance,BUILDING 1 - COMPONENT BLOCK 31 - SURFACE 4 (150),Detached Shading:Building,0.40,0.40,0.00, N/A
ShadingProperty Reflectance,Mir-BUILDING 1 - COMPONENT BLOCK 31 - SURFACE 4 (150),Detached Shading:Building,0.40,0.40,0.00, N/A
ShadingProperty Reflectance,BUILDING 1 - COMPONENT BLOCK 31 - SURFACE 5 (151),Detached Shading:Building,0.40,0.40,0.00, N/A
ShadingProperty Reflectance,Mir-BUILDING 1 - COMPONENT BLOCK 31 - SURFACE 5 (151),Detached Shading:Building,0.40,0.40,0.00, N/A
ShadingProperty Reflectance,BUILDING 1 - COMPONENT BLOCK 31 - SURFACE 6 (152),Detached Shading:Building,0.40,0.40,0.00, N/A
ShadingProperty Reflectance,Mir-BUILDING 1 - COMPONENT BLOCK 31 - SURFACE 6 (152),Detached Shading:Building,0.40,0.40,0.00, N/A
ShadingProperty Reflectance,BUILDING 1 - COMPONENT BLOCK 39 - SURFACE 1 (153),Detached Shading:Building,0.40,0.40,0.00, N/A
ShadingProperty Reflectance,Mir-BUILDING 1 - COMPONENT BLOCK 39 - SURFACE 1 (153),Detached Shading:Building,0.40,0.40,0.00, N/A
ShadingProperty Reflectance,BUILDING 1 - COMPONENT BLOCK 39 - SURFACE 2 (154),Detached Shading:Building,0.40,0.40,0.00, N/A
ShadingProperty Reflectance,Mir-BUILDING 1 - COMPONENT BLOCK 39 - SURFACE 2 (154),Detached Shading:Building,0.40,0.40,0.00, N/A
ShadingProperty Reflectance,BUILDING 1 - COMPONENT BLOCK 39 - SURFACE 3 (155),Detached Shading:Building,0.40,0.40,0.00, N/A
ShadingProperty Reflectance,Mir-BUILDING 1 - COMPONENT BLOCK 39 - SURFACE 3 (155),Detached Shading:Building,0.40,0.40,0.00, N/A
ShadingProperty Reflectance,BUILDING 1 - COMPONENT BLOCK 39 - SURFACE 4 (156),Detached Shading:Building,0.40,0.40,0.00, N/A
ShadingProperty Reflectance,Mir-BUILDING 1 - COMPONENT BLOCK 39 - SURFACE 4 (156),Detached Shading:Building,0.40,0.40,0.00, N/A
ShadingProperty Reflectance,BUILDING 1 - COMPONENT BLOCK 39 - SURFACE 5 (157),Detached Shading:Building,0.40,0.40,0.00, N/A
ShadingProperty Reflectance,Mir-BUILDING 1 - COMPONENT BLOCK 39 - SURFACE 5 (157),Detached Shading:Building,0.40,0.40,0.00, N/A
ShadingProperty Reflectance,BUILDING 1 - COMPONENT BLOCK 39 - SURFACE 6 (158),Detached Shading:Building,0.40,0.40,0.00, N/A
ShadingProperty Reflectance,Mir-BUILDING 1 - COMPONENT BLOCK 39 - SURFACE 6 (158),Detached Shading:Building,0.40,0.40,0.00, N/A
ShadingProperty Reflectance,BUILDING 1 - COMPONENT BLOCK 40 - SURFACE 1 (159),Detached Shading:Building,0.40,0.40,0.00, N/A
ShadingProperty Reflectance,Mir-BUILDING 1 - COMPONENT BLOCK 40 - SURFACE 1 (159),Detached Shading:Building,0.40,0.40,0.00, N/A
ShadingProperty Reflectance,BUILDING 1 - COMPONENT BLOCK 40 - SURFACE 2 (160),Detached Shading:Building,0.40,0.40,0.00, N/A
ShadingProperty Reflectance,Mir-BUILDING 1 - COMPONENT BLOCK 40 - SURFACE 2 (160),Detached Shading:Building,0.40,0.40,0.00, N/A
ShadingProperty Reflectance,BUILDING 1 - COMPONENT BLOCK 40 - SURFACE 3 (161),Detached Shading:Building,0.40,0.40,0.00, N/A
ShadingProperty Reflectance,Mir-BUILDING 1 - COMPONENT BLOCK 40 - SURFACE 3 (161),Detached Shading:Building,0.40,0.40,0.00, N/A
ShadingProperty Reflectance,BUILDING 1 - COMPONENT BLOCK 40 - SURFACE 4 (162),Detached Shading:Building,0.40,0.40,0.00, N/A
ShadingProperty Reflectance,Mir-BUILDING 1 - COMPONENT BLOCK 40 - SURFACE 4 (162),Detached Shading:Building,0.40,0.40,0.00, N/A
ShadingProperty Reflectance,BUILDING 1 - COMPONENT BLOCK 40 - SURFACE 5 (163),Detached Shading:Building,0.40,0.40,0.00, N/A
ShadingProperty Reflectance,Mir-BUILDING 1 - COMPONENT BLOCK 40 - SURFACE 5 (163),Detached Shading:Building,0.40,0.40,0.00, N/A
ShadingProperty Reflectance,BUILDING 1 - COMPONENT BLOCK 40 - SURFACE 6 (164),Detached Shading:Building,0.40,0.40,0.00, N/A
ShadingProperty Reflectance,Mir-BUILDING 1 - COMPONENT BLOCK 40 - SURFACE 6 (164),Detached Shading:Building,0.40,0.40,0.00, N/A
ShadingProperty Reflectance,BUILDING 1 - COMPONENT BLOCK 62 - SURFACE 1 (165),Detached Shading:Building,0.40,0.40,0.00, N/A
ShadingProperty Reflectance,Mir-BUILDING 1 - COMPONENT BLOCK 62 - SURFACE 1 (165),Detached Shading:Building,0.40,0.40,0.00, N/A
ShadingProperty Reflectance,BUILDING 1 - COMPONENT BLOCK 62 - SURFACE 2 (166),Detached Shading:Building,0.40,0.40,0.00, N/A
ShadingProperty Reflectance,Mir-BUILDING 1 - COMPONENT BLOCK 62 - SURFACE 2 (166),Detached Shading:Building,0.40,0.40,0.00, N/A
ShadingProperty Reflectance,BUILDING 1 - COMPONENT BLOCK 62 - SURFACE 3 (167),Detached Shading:Building,0.40,0.40,0.00, N/A
ShadingProperty Reflectance,Mir-BUILDING 1 - COMPONENT BLOCK 62 - SURFACE 3 (167),Detached Shading:Building,0.40,0.40,0.00, N/A
ShadingProperty Reflectance,BUILDING 1 - COMPONENT BLOCK 62 - SURFACE 4 (168),Detached Shading:Building,0.40,0.40,0.00, N/A
ShadingProperty Reflectance,Mir-BUILDING 1 - COMPONENT BLOCK 62 - SURFACE 4 (168),Detached Shading:Building,0.40,0.40,0.00, N/A
ShadingProperty Reflectance,BUILDING 1 - COMPONENT BLOCK 62 - SURFACE 5 (169),Detached Shading:Building,0.40,0.40,0.00, N/A
ShadingProperty Reflectance,Mir-BUILDING 1 - COMPONENT BLOCK 62 - SURFACE 5 (169),Detached Shading:Building,0.40,0.40,0.00, N/A
ShadingProperty Reflectance,BUILDING 1 - COMPONENT BLOCK 62 - SURFACE 6 (170),Detached Shading:Building,0.40,0.40,0.00, N/A
ShadingProperty Reflectance,Mir-BUILDING 1 - COMPONENT BLOCK 62 - SURFACE 6 (170),Detached Shading:Building,0.40,0.40,0.00, N/A
ShadingProperty Reflectance,BUILDING 1 - COMPONENT BLOCK 73 - SURFACE 1 (171),Detached Shading:Building,0.40,0.40,0.00, N/A
ShadingProperty Reflectance,Mir-BUILDING 1 - COMPONENT BLOCK 73 - SURFACE 1 (171),Detached Shading:Building,0.40,0.40,0.00, N/A
ShadingProperty Reflectance,BUILDING 1 - COMPONENT BLOCK 73 - SURFACE 2 (172),Detached Shading:Building,0.40,0.40,0.00, N/A
ShadingProperty Reflectance,Mir-BUILDING 1 - COMPONENT BLOCK 73 - SURFACE 2 (172),Detached Shading:Building,0.40,0.40,0.00, N/A
ShadingProperty Reflectance,BUILDING 1 - COMPONENT BLOCK 73 - SURFACE 3 (173),Detached Shading:Building,0.40,0.40,0.00, N/A
ShadingProperty Reflectance,Mir-BUILDING 1 - COMPONENT BLOCK 73 - SURFACE 3 (173),Detached Shading:Building,0.40,0.40,0.00, N/A
ShadingProperty Reflectance,BUILDING 1 - COMPONENT BLOCK 73 - SURFACE 4 (174),Detached Shading:Building,0.40,0.40,0.00, N/A
ShadingProperty Reflectance,Mir-BUILDING 1 - COMPONENT BLOCK 73 - SURFACE 4 (174),Detached Shading:Building,0.40,0.40,0.00, N/A
ShadingProperty Reflectance,BUILDING 1 - COMPONENT BLOCK 73 - SURFACE 5 (175),Detached Shading:Building,0.40,0.40,0.00, N/A
ShadingProperty Reflectance,Mir-BUILDING 1 - COMPONENT BLOCK 73 - SURFACE 5 (175),Detached Shading:Building,0.40,0.40,0.00, N/A
ShadingProperty Reflectance,BUILDING 1 - COMPONENT BLOCK 73 - SURFACE 6 (176),Detached Shading:Building,0.40,0.40,0.00, N/A
ShadingProperty Reflectance,Mir-BUILDING 1 - COMPONENT BLOCK 73 - SURFACE 6 (176),Detached Shading:Building,0.40,0.40,0.00, N/A
ShadingProperty Reflectance,BUILDING 1 - COMPONENT BLOCK 79 - SURFACE 1 (177),Detached Shading:Building,0.40,0.40,0.00, N/A
ShadingProperty Reflectance,Mir-BUILDING 1 - COMPONENT BLOCK 79 - SURFACE 1 (177),Detached Shading:Building,0.40,0.40,0.00, N/A
ShadingProperty Reflectance,BUILDING 1 - COMPONENT BLOCK 79 - SURFACE 2 (178),Detached Shading:Building,0.40,0.40,0.00, N/A
ShadingProperty Reflectance,Mir-BUILDING 1 - COMPONENT BLOCK 79 - SURFACE 2 (178),Detached Shading:Building,0.40,0.40,0.00, N/A
ShadingProperty Reflectance,BUILDING 1 - COMPONENT BLOCK 79 - SURFACE 3 (179),Detached Shading:Building,0.40,0.40,0.00, N/A
ShadingProperty Reflectance,Mir-BUILDING 1 - COMPONENT BLOCK 79 - SURFACE 3 (179),Detached Shading:Building,0.40,0.40,0.00, N/A
ShadingProperty Reflectance,BUILDING 1 - COMPONENT BLOCK 79 - SURFACE 4 (180),Detached Shading:Building,0.40,0.40,0.00, N/A
ShadingProperty Reflectance,Mir-BUILDING 1 - COMPONENT BLOCK 79 - SURFACE 4 (180),Detached Shading:Building,0.40,0.40,0.00, N/A
ShadingProperty Reflectance,BUILDING 1 - COMPONENT BLOCK 79 - SURFACE 5 (181),Detached Shading:Building,0.40,0.40,0.00, N/A
ShadingProperty Reflectance,Mir-BUILDING 1 - COMPONENT BLOCK 79 - SURFACE 5 (181),Detached Shading:Building,0.40,0.40,0.00, N/A
ShadingProperty Reflectance,BUILDING 1 - COMPONENT BLOCK 79 - SURFACE 6 (182),Detached Shading:Building,0.40,0.40,0.00, N/A
ShadingProperty Reflectance,Mir-BUILDING 1 - COMPONENT BLOCK 79 - SURFACE 6 (182),Detached Shading:Building,0.40,0.40,0.00, N/A
ShadingProperty Reflectance,BUILDING 1 - COMPONENT BLOCK 80 - SURFACE 1 (183),Detached Shading:Building,0.40,0.40,0.00, N/A
ShadingProperty Reflectance,Mir-BUILDING 1 - COMPONENT BLOCK 80 - SURFACE 1 (183),Detached Shading:Building,0.40,0.40,0.00, N/A
ShadingProperty Reflectance,BUILDING 1 - COMPONENT BLOCK 80 - SURFACE 2 (184),Detached Shading:Building,0.40,0.40,0.00, N/A
ShadingProperty Reflectance,Mir-BUILDING 1 - COMPONENT BLOCK 80 - SURFACE 2 (184),Detached Shading:Building,0.40,0.40,0.00, N/A
ShadingProperty Reflectance,BUILDING 1 - COMPONENT BLOCK 80 - SURFACE 3 (185),Detached Shading:Building,0.40,0.40,0.00, N/A
ShadingProperty Reflectance,Mir-BUILDING 1 - COMPONENT BLOCK 80 - SURFACE 3 (185),Detached Shading:Building,0.40,0.40,0.00, N/A
ShadingProperty Reflectance,BUILDING 1 - COMPONENT BLOCK 80 - SURFACE 4 (186),Detached Shading:Building,0.40,0.40,0.00, N/A
ShadingProperty Reflectance,Mir-BUILDING 1 - COMPONENT BLOCK 80 - SURFACE 4 (186),Detached Shading:Building,0.40,0.40,0.00, N/A
ShadingProperty Reflectance,BUILDING 1 - COMPONENT BLOCK 80 - SURFACE 5 (187),Detached Shading:Building,0.40,0.40,0.00, N/A
ShadingProperty Reflectance,Mir-BUILDING 1 - COMPONENT BLOCK 80 - SURFACE 5 (187),Detached Shading:Building,0.40,0.40,0.00, N/A
ShadingProperty Reflectance,BUILDING 1 - COMPONENT BLOCK 80 - SURFACE 6 (188),Detached Shading:Building,0.40,0.40,0.00, N/A
ShadingProperty Reflectance,Mir-BUILDING 1 - COMPONENT BLOCK 80 - SURFACE 6 (188),Detached Shading:Building,0.40,0.40,0.00, N/A
ShadingProperty Reflectance,BUILDING 1 - COMPONENT BLOCK 103 - SURFACE 1 (189),Detached Shading:Building,0.40,0.40,0.00, N/A
ShadingProperty Reflectance,Mir-BUILDING 1 - COMPONENT BLOCK 103 - SURFACE 1 (189),Detached Shading:Building,0.40,0.40,0.00, N/A
ShadingProperty Reflectance,BUILDING 1 - COMPONENT BLOCK 103 - SURFACE 2 (190),Detached Shading:Building,0.40,0.40,0.00, N/A
ShadingProperty Reflectance,Mir-BUILDING 1 - COMPONENT BLOCK 103 - SURFACE 2 (190),Detached Shading:Building,0.40,0.40,0.00, N/A
ShadingProperty Reflectance,BUILDING 1 - COMPONENT BLOCK 103 - SURFACE 3 (191),Detached Shading:Building,0.40,0.40,0.00, N/A
ShadingProperty Reflectance,Mir-BUILDING 1 - COMPONENT BLOCK 103 - SURFACE 3 (191),Detached Shading:Building,0.40,0.40,0.00, N/A
ShadingProperty Reflectance,BUILDING 1 - COMPONENT BLOCK 103 - SURFACE 4 (192),Detached Shading:Building,0.40,0.40,0.00, N/A
ShadingProperty Reflectance,Mir-BUILDING 1 - COMPONENT BLOCK 103 - SURFACE 4 (192),Detached Shading:Building,0.40,0.40,0.00, N/A
ShadingProperty Reflectance,BUILDING 1 - COMPONENT BLOCK 103 - SURFACE 5 (193),Detached Shading:Building,0.40,0.40,0.00, N/A
ShadingProperty Reflectance,Mir-BUILDING 1 - COMPONENT BLOCK 103 - SURFACE 5 (193),Detached Shading:Building,0.40,0.40,0.00, N/A
ShadingProperty Reflectance,BUILDING 1 - COMPONENT BLOCK 103 - SURFACE 6 (194),Detached Shading:Building,0.40,0.40,0.00, N/A
ShadingProperty Reflectance,Mir-BUILDING 1 - COMPONENT BLOCK 103 - SURFACE 6 (194),Detached Shading:Building,0.40,0.40,0.00, N/A
ShadingProperty Reflectance,BUILDING 1 - COMPONENT BLOCK 104 - SURFACE 1 (195),Detached Shading:Building,0.40,0.40,0.00, N/A
ShadingProperty Reflectance,Mir-BUILDING 1 - COMPONENT BLOCK 104 - SURFACE 1 (195),Detached Shading:Building,0.40,0.40,0.00, N/A
ShadingProperty Reflectance,BUILDING 1 - COMPONENT BLOCK 104 - SURFACE 2 (196),Detached Shading:Building,0.40,0.40,0.00, N/A
ShadingProperty Reflectance,Mir-BUILDING 1 - COMPONENT BLOCK 104 - SURFACE 2 (196),Detached Shading:Building,0.40,0.40,0.00, N/A
ShadingProperty Reflectance,BUILDING 1 - COMPONENT BLOCK 104 - SURFACE 3 (197),Detached Shading:Building,0.40,0.40,0.00, N/A
ShadingProperty Reflectance,Mir-BUILDING 1 - COMPONENT BLOCK 104 - SURFACE 3 (197),Detached Shading:Building,0.40,0.40,0.00, N/A
ShadingProperty Reflectance,BUILDING 1 - COMPONENT BLOCK 104 - SURFACE 4 (198),Detached Shading:Building,0.40,0.40,0.00, N/A
ShadingProperty Reflectance,Mir-BUILDING 1 - COMPONENT BLOCK 104 - SURFACE 4 (198),Detached Shading:Building,0.40,0.40,0.00, N/A
ShadingProperty Reflectance,BUILDING 1 - COMPONENT BLOCK 104 - SURFACE 5 (199),Detached Shading:Building,0.40,0.40,0.00, N/A
ShadingProperty Reflectance,Mir-BUILDING 1 - COMPONENT BLOCK 104 - SURFACE 5 (199),Detached Shading:Building,0.40,0.40,0.00, N/A
ShadingProperty Reflectance,BUILDING 1 - COMPONENT BLOCK 104 - SURFACE 6 (200),Detached Shading:Building,0.40,0.40,0.00, N/A
ShadingProperty Reflectance,Mir-BUILDING 1 - COMPONENT BLOCK 104 - SURFACE 6 (200),Detached Shading:Building,0.40,0.40,0.00, N/A
ShadingProperty Reflectance,BUILDING 1 - COMPONENT BLOCK 111 - SURFACE 1 (201),Detached Shading:Building,0.40,0.40,0.00, N/A
ShadingProperty Reflectance,Mir-BUILDING 1 - COMPONENT BLOCK 111 - SURFACE 1 (201),Detached Shading:Building,0.40,0.40,0.00, N/A
ShadingProperty Reflectance,BUILDING 1 - COMPONENT BLOCK 111 - SURFACE 2 (202),Detached Shading:Building,0.40,0.40,0.00, N/A
ShadingProperty Reflectance,Mir-BUILDING 1 - COMPONENT BLOCK 111 - SURFACE 2 (202),Detached Shading:Building,0.40,0.40,0.00, N/A
ShadingProperty Reflectance,BUILDING 1 - COMPONENT BLOCK 111 - SURFACE 3 (203),Detached Shading:Building,0.40,0.40,0.00, N/A
ShadingProperty Reflectance,Mir-BUILDING 1 - COMPONENT BLOCK 111 - SURFACE 3 (203),Detached Shading:Building,0.40,0.40,0.00, N/A
ShadingProperty Reflectance,BUILDING 1 - COMPONENT BLOCK 111 - SURFACE 4 (204),Detached Shading:Building,0.40,0.40,0.00, N/A
ShadingProperty Reflectance,Mir-BUILDING 1 - COMPONENT BLOCK 111 - SURFACE 4 (204),Detached Shading:Building,0.40,0.40,0.00, N/A
ShadingProperty Reflectance,BUILDING 1 - COMPONENT BLOCK 111 - SURFACE 5 (205),Detached Shading:Building,0.40,0.40,0.00, N/A
ShadingProperty Reflectance,Mir-BUILDING 1 - COMPONENT BLOCK 111 - SURFACE 5 (205),Detached Shading:Building,0.40,0.40,0.00, N/A
ShadingProperty Reflectance,BUILDING 1 - COMPONENT BLOCK 111 - SURFACE 6 (206),Detached Shading:Building,0.40,0.40,0.00, N/A
ShadingProperty Reflectance,Mir-BUILDING 1 - COMPONENT BLOCK 111 - SURFACE 6 (206),Detached Shading:Building,0.40,0.40,0.00, N/A
ShadingProperty Reflectance,BUILDING 1 - COMPONENT BLOCK 115 - SURFACE 1 (207),Detached Shading:Building,0.40,0.40,0.00, N/A
ShadingProperty Reflectance,Mir-BUILDING 1 - COMPONENT BLOCK 115 - SURFACE 1 (207),Detached Shading:Building,0.40,0.40,0.00, N/A
ShadingProperty Reflectance,BUILDING 1 - COMPONENT BLOCK 115 - SURFACE 2 (208),Detached Shading:Building,0.40,0.40,0.00, N/A
ShadingProperty Reflectance,Mir-BUILDING 1 - COMPONENT BLOCK 115 - SURFACE 2 (208),Detached Shading:Building,0.40,0.40,0.00, N/A
ShadingProperty Reflectance,BUILDING 1 - COMPONENT BLOCK 115 - SURFACE 3 (209),Detached Shading:Building,0.40,0.40,0.00, N/A
ShadingProperty Reflectance,Mir-BUILDING 1 - COMPONENT BLOCK 115 - SURFACE 3 (209),Detached Shading:Building,0.40,0.40,0.00, N/A
ShadingProperty Reflectance,BUILDING 1 - COMPONENT BLOCK 115 - SURFACE 4 (210),Detached Shading:Building,0.40,0.40,0.00, N/A
ShadingProperty Reflectance,Mir-BUILDING 1 - COMPONENT BLOCK 115 - SURFACE 4 (210),Detached Shading:Building,0.40,0.40,0.00, N/A
ShadingProperty Reflectance,BUILDING 1 - COMPONENT BLOCK 115 - SURFACE 5 (211),Detached Shading:Building,0.40,0.40,0.00, N/A
ShadingProperty Reflectance,Mir-BUILDING 1 - COMPONENT BLOCK 115 - SURFACE 5 (211),Detached Shading:Building,0.40,0.40,0.00, N/A
ShadingProperty Reflectance,BUILDING 1 - COMPONENT BLOCK 115 - SURFACE 6 (212),Detached Shading:Building,0.40,0.40,0.00, N/A
ShadingProperty Reflectance,Mir-BUILDING 1 - COMPONENT BLOCK 115 - SURFACE 6 (212),Detached Shading:Building,0.40,0.40,0.00, N/A
ShadingProperty Reflectance,BUILDING 1 - COMPONENT BLOCK 116 - SURFACE 1 (213),Detached Shading:Building,0.40,0.40,0.00, N/A
ShadingProperty Reflectance,Mir-BUILDING 1 - COMPONENT BLOCK 116 - SURFACE 1 (213),Detached Shading:Building,0.40,0.40,0.00, N/A
ShadingProperty Reflectance,BUILDING 1 - COMPONENT BLOCK 116 - SURFACE 2 (214),Detached Shading:Building,0.40,0.40,0.00, N/A
ShadingProperty Reflectance,Mir-BUILDING 1 - COMPONENT BLOCK 116 - SURFACE 2 (214),Detached Shading:Building,0.40,0.40,0.00, N/A
ShadingProperty Reflectance,BUILDING 1 - COMPONENT BLOCK 116 - SURFACE 3 (215),Detached Shading:Building,0.40,0.40,0.00, N/A
ShadingProperty Reflectance,Mir-BUILDING 1 - COMPONENT BLOCK 116 - SURFACE 3 (215),Detached Shading:Building,0.40,0.40,0.00, N/A
ShadingProperty Reflectance,BUILDING 1 - COMPONENT BLOCK 116 - SURFACE 4 (216),Detached Shading:Building,0.40,0.40,0.00, N/A
ShadingProperty Reflectance,Mir-BUILDING 1 - COMPONENT BLOCK 116 - SURFACE 4 (216),Detached Shading:Building,0.40,0.40,0.00, N/A
ShadingProperty Reflectance,BUILDING 1 - COMPONENT BLOCK 116 - SURFACE 5 (217),Detached Shading:Building,0.40,0.40,0.00, N/A
ShadingProperty Reflectance,Mir-BUILDING 1 - COMPONENT BLOCK 116 - SURFACE 5 (217),Detached Shading:Building,0.40,0.40,0.00, N/A
ShadingProperty Reflectance,BUILDING 1 - COMPONENT BLOCK 116 - SURFACE 6 (218),Detached Shading:Building,0.40,0.40,0.00, N/A
ShadingProperty Reflectance,Mir-BUILDING 1 - COMPONENT BLOCK 116 - SURFACE 6 (218),Detached Shading:Building,0.40,0.40,0.00, N/A
ShadingProperty Reflectance,BUILDING 1 - COMPONENT BLOCK 117 - SURFACE 1 (219),Detached Shading:Building,0.40,0.40,0.00, N/A
ShadingProperty Reflectance,Mir-BUILDING 1 - COMPONENT BLOCK 117 - SURFACE 1 (219),Detached Shading:Building,0.40,0.40,0.00, N/A
ShadingProperty Reflectance,BUILDING 1 - COMPONENT BLOCK 117 - SURFACE 2 (220),Detached Shading:Building,0.40,0.40,0.00, N/A
ShadingProperty Reflectance,Mir-BUILDING 1 - COMPONENT BLOCK 117 - SURFACE 2 (220),Detached Shading:Building,0.40,0.40,0.00, N/A
ShadingProperty Reflectance,BUILDING 1 - COMPONENT BLOCK 117 - SURFACE 3 (221),Detached Shading:Building,0.40,0.40,0.00, N/A
ShadingProperty Reflectance,Mir-BUILDING 1 - COMPONENT BLOCK 117 - SURFACE 3 (221),Detached Shading:Building,0.40,0.40,0.00, N/A
ShadingProperty Reflectance,BUILDING 1 - COMPONENT BLOCK 117 - SURFACE 4 (222),Detached Shading:Building,0.40,0.40,0.00, N/A
ShadingProperty Reflectance,Mir-BUILDING 1 - COMPONENT BLOCK 117 - SURFACE 4 (222),Detached Shading:Building,0.40,0.40,0.00, N/A
ShadingProperty Reflectance,BUILDING 1 - COMPONENT BLOCK 117 - SURFACE 5 (223),Detached Shading:Building,0.40,0.40,0.00, N/A
ShadingProperty Reflectance,Mir-BUILDING 1 - COMPONENT BLOCK 117 - SURFACE 5 (223),Detached Shading:Building,0.40,0.40,0.00, N/A
ShadingProperty Reflectance,BUILDING 1 - COMPONENT BLOCK 117 - SURFACE 6 (224),Detached Shading:Building,0.40,0.40,0.00, N/A
ShadingProperty Reflectance,Mir-BUILDING 1 - COMPONENT BLOCK 117 - SURFACE 6 (224),Detached Shading:Building,0.40,0.40,0.00, N/A
ShadingProperty Reflectance,BUILDING 1 - COMPONENT BLOCK 118 - SURFACE 1 (225),Detached Shading:Building,0.40,0.40,0.00, N/A
ShadingProperty Reflectance,Mir-BUILDING 1 - COMPONENT BLOCK 118 - SURFACE 1 (225),Detached Shading:Building,0.40,0.40,0.00, N/A
ShadingProperty Reflectance,BUILDING 1 - COMPONENT BLOCK 118 - SURFACE 2 (226),Detached Shading:Building,0.40,0.40,0.00, N/A
ShadingProperty Reflectance,Mir-BUILDING 1 - COMPONENT BLOCK 118 - SURFACE 2 (226),Detached Shading:Building,0.40,0.40,0.00, N/A
ShadingProperty Reflectance,BUILDING 1 - COMPONENT BLOCK 118 - SURFACE 3 (227),Detached Shading:Building,0.40,0.40,0.00, N/A
ShadingProperty Reflectance,Mir-BUILDING 1 - COMPONENT BLOCK 118 - SURFACE 3 (227),Detached Shading:Building,0.40,0.40,0.00, N/A
ShadingProperty Reflectance,BUILDING 1 - COMPONENT BLOCK 118 - SURFACE 4 (228),Detached Shading:Building,0.40,0.40,0.00, N/A
ShadingProperty Reflectance,Mir-BUILDING 1 - COMPONENT BLOCK 118 - SURFACE 4 (228),Detached Shading:Building,0.40,0.40,0.00, N/A
ShadingProperty Reflectance,BUILDING 1 - COMPONENT BLOCK 118 - SURFACE 5 (229),Detached Shading:Building,0.40,0.40,0.00, N/A
ShadingProperty Reflectance,Mir-BUILDING 1 - COMPONENT BLOCK 118 - SURFACE 5 (229),Detached Shading:Building,0.40,0.40,0.00, N/A
ShadingProperty Reflectance,BUILDING 1 - COMPONENT BLOCK 118 - SURFACE 6 (230),Detached Shading:Building,0.40,0.40,0.00, N/A
ShadingProperty Reflectance,Mir-BUILDING 1 - COMPONENT BLOCK 118 - SURFACE 6 (230),Detached Shading:Building,0.40,0.40,0.00, N/A
ShadingProperty Reflectance,BUILDING 1 - COMPONENT BLOCK 119 - SURFACE 1 (231),Detached Shading:Building,0.40,0.40,0.00, N/A
ShadingProperty Reflectance,Mir-BUILDING 1 - COMPONENT BLOCK 119 - SURFACE 1 (231),Detached Shading:Building,0.40,0.40,0.00, N/A
ShadingProperty Reflectance,BUILDING 1 - COMPONENT BLOCK 119 - SURFACE 2 (232),Detached Shading:Building,0.40,0.40,0.00, N/A
ShadingProperty Reflectance,Mir-BUILDING 1 - COMPONENT BLOCK 119 - SURFACE 2 (232),Detached Shading:Building,0.40,0.40,0.00, N/A
ShadingProperty Reflectance,BUILDING 1 - COMPONENT BLOCK 119 - SURFACE 3 (233),Detached Shading:Building,0.40,0.40,0.00, N/A
ShadingProperty Reflectance,Mir-BUILDING 1 - COMPONENT BLOCK 119 - SURFACE 3 (233),Detached Shading:Building,0.40,0.40,0.00, N/A
ShadingProperty Reflectance,BUILDING 1 - COMPONENT BLOCK 119 - SURFACE 4 (234),Detached Shading:Building,0.40,0.40,0.00, N/A
ShadingProperty Reflectance,Mir-BUILDING 1 - COMPONENT BLOCK 119 - SURFACE 4 (234),Detached Shading:Building,0.40,0.40,0.00, N/A
ShadingProperty Reflectance,BUILDING 1 - COMPONENT BLOCK 119 - SURFACE 5 (235),Detached Shading:Building,0.40,0.40,0.00, N/A
ShadingProperty Reflectance,Mir-BUILDING 1 - COMPONENT BLOCK 119 - SURFACE 5 (235),Detached Shading:Building,0.40,0.40,0.00, N/A
ShadingProperty Reflectance,BUILDING 1 - COMPONENT BLOCK 119 - SURFACE 6 (236),Detached Shading:Building,0.40,0.40,0.00, N/A
ShadingProperty Reflectance,Mir-BUILDING 1 - COMPONENT BLOCK 119 - SURFACE 6 (236),Detached Shading:Building,0.40,0.40,0.00, N/A
ShadingProperty Reflectance,BUILDING 1 - COMPONENT BLOCK 120 - SURFACE 1 (237),Detached Shading:Building,0.40,0.40,0.00, N/A
ShadingProperty Reflectance,Mir-BUILDING 1 - COMPONENT BLOCK 120 - SURFACE 1 (237),Detached Shading:Building,0.40,0.40,0.00, N/A
ShadingProperty Reflectance,BUILDING 1 - COMPONENT BLOCK 120 - SURFACE 2 (238),Detached Shading:Building,0.40,0.40,0.00, N/A
ShadingProperty Reflectance,Mir-BUILDING 1 - COMPONENT BLOCK 120 - SURFACE 2 (238),Detached Shading:Building,0.40,0.40,0.00, N/A
ShadingProperty Reflectance,BUILDING 1 - COMPONENT BLOCK 120 - SURFACE 3 (239),Detached Shading:Building,0.40,0.40,0.00, N/A
ShadingProperty Reflectance,Mir-BUILDING 1 - COMPONENT BLOCK 120 - SURFACE 3 (239),Detached Shading:Building,0.40,0.40,0.00, N/A
ShadingProperty Reflectance,BUILDING 1 - COMPONENT BLOCK 120 - SURFACE 4 (240),Detached Shading:Building,0.40,0.40,0.00, N/A
ShadingProperty Reflectance,Mir-BUILDING 1 - COMPONENT BLOCK 120 - SURFACE 4 (240),Detached Shading:Building,0.40,0.40,0.00, N/A
ShadingProperty Reflectance,BUILDING 1 - COMPONENT BLOCK 120 - SURFACE 5 (241),Detached Shading:Building,0.40,0.40,0.00, N/A
ShadingProperty Reflectance,Mir-BUILDING 1 - COMPONENT BLOCK 120 - SURFACE 5 (241),Detached Shading:Building,0.40,0.40,0.00, N/A
ShadingProperty Reflectance,BUILDING 1 - COMPONENT BLOCK 120 - SURFACE 6 (242),Detached Shading:Building,0.40,0.40,0.00, N/A
ShadingProperty Reflectance,Mir-BUILDING 1 - COMPONENT BLOCK 120 - SURFACE 6 (242),Detached Shading:Building,0.40,0.40,0.00, N/A
ShadingProperty Reflectance,BUILDING 1 - COMPONENT BLOCK 125 - SURFACE 1 (243),Detached Shading:Building,0.40,0.40,0.00, N/A
ShadingProperty Reflectance,Mir-BUILDING 1 - COMPONENT BLOCK 125 - SURFACE 1 (243),Detached Shading:Building,0.40,0.40,0.00, N/A
ShadingProperty Reflectance,BUILDING 1 - COMPONENT BLOCK 125 - SURFACE 2 (244),Detached Shading:Building,0.40,0.40,0.00, N/A
ShadingProperty Reflectance,Mir-BUILDING 1 - COMPONENT BLOCK 125 - SURFACE 2 (244),Detached Shading:Building,0.40,0.40,0.00, N/A
ShadingProperty Reflectance,BUILDING 1 - COMPONENT BLOCK 125 - SURFACE 3 (245),Detached Shading:Building,0.40,0.40,0.00, N/A
ShadingProperty Reflectance,Mir-BUILDING 1 - COMPONENT BLOCK 125 - SURFACE 3 (245),Detached Shading:Building,0.40,0.40,0.00, N/A
ShadingProperty Reflectance,BUILDING 1 - COMPONENT BLOCK 125 - SURFACE 4 (246),Detached Shading:Building,0.40,0.40,0.00, N/A
ShadingProperty Reflectance,Mir-BUILDING 1 - COMPONENT BLOCK 125 - SURFACE 4 (246),Detached Shading:Building,0.40,0.40,0.00, N/A
ShadingProperty Reflectance,BUILDING 1 - COMPONENT BLOCK 125 - SURFACE 5 (247),Detached Shading:Building,0.40,0.40,0.00, N/A
ShadingProperty Reflectance,Mir-BUILDING 1 - COMPONENT BLOCK 125 - SURFACE 5 (247),Detached Shading:Building,0.40,0.40,0.00, N/A
ShadingProperty Reflectance,BUILDING 1 - COMPONENT BLOCK 125 - SURFACE 6 (248),Detached Shading:Building,0.40,0.40,0.00, N/A
ShadingProperty Reflectance,Mir-BUILDING 1 - COMPONENT BLOCK 125 - SURFACE 6 (248),Detached Shading:Building,0.40,0.40,0.00, N/A
ShadingProperty Reflectance,BUILDING 1 - COMPONENT BLOCK 130 - SURFACE 1 (249),Detached Shading:Building,0.40,0.40,0.00, N/A
ShadingProperty Reflectance,Mir-BUILDING 1 - COMPONENT BLOCK 130 - SURFACE 1 (249),Detached Shading:Building,0.40,0.40,0.00, N/A
ShadingProperty Reflectance,BUILDING 1 - COMPONENT BLOCK 130 - SURFACE 2 (250),Detached Shading:Building,0.40,0.40,0.00, N/A
ShadingProperty Reflectance,Mir-BUILDING 1 - COMPONENT BLOCK 130 - SURFACE 2 (250),Detached Shading:Building,0.40,0.40,0.00, N/A
ShadingProperty Reflectance,BUILDING 1 - COMPONENT BLOCK 130 - SURFACE 3 (251),Detached Shading:Building,0.40,0.40,0.00, N/A
ShadingProperty Reflectance,Mir-BUILDING 1 - COMPONENT BLOCK 130 - SURFACE 3 (251),Detached Shading:Building,0.40,0.40,0.00, N/A
ShadingProperty Reflectance,BUILDING 1 - COMPONENT BLOCK 130 - SURFACE 4 (252),Detached Shading:Building,0.40,0.40,0.00, N/A
ShadingProperty Reflectance,Mir-BUILDING 1 - COMPONENT BLOCK 130 - SURFACE 4 (252),Detached Shading:Building,0.40,0.40,0.00, N/A
ShadingProperty Reflectance,BUILDING 1 - COMPONENT BLOCK 130 - SURFACE 5 (253),Detached Shading:Building,0.40,0.40,0.00, N/A
ShadingProperty Reflectance,Mir-BUILDING 1 - COMPONENT BLOCK 130 - SURFACE 5 (253),Detached Shading:Building,0.40,0.40,0.00, N/A
ShadingProperty Reflectance,BUILDING 1 - COMPONENT BLOCK 130 - SURFACE 6 (254),Detached Shading:Building,0.40,0.40,0.00, N/A
ShadingProperty Reflectance,Mir-BUILDING 1 - COMPONENT BLOCK 130 - SURFACE 6 (254),Detached Shading:Building,0.40,0.40,0.00, N/A
ShadingProperty Reflectance,BUILDING 1 - COMPONENT BLOCK 126 - SURFACE 1 (255),Detached Shading:Building,0.40,0.40,0.00, N/A
ShadingProperty Reflectance,Mir-BUILDING 1 - COMPONENT BLOCK 126 - SURFACE 1 (255),Detached Shading:Building,0.40,0.40,0.00, N/A
ShadingProperty Reflectance,BUILDING 1 - COMPONENT BLOCK 126 - SURFACE 2 (256),Detached Shading:Building,0.40,0.40,0.00, N/A
ShadingProperty Reflectance,Mir-BUILDING 1 - COMPONENT BLOCK 126 - SURFACE 2 (256),Detached Shading:Building,0.40,0.40,0.00, N/A
ShadingProperty Reflectance,BUILDING 1 - COMPONENT BLOCK 126 - SURFACE 3 (257),Detached Shading:Building,0.40,0.40,0.00, N/A
ShadingProperty Reflectance,Mir-BUILDING 1 - COMPONENT BLOCK 126 - SURFACE 3 (257),Detached Shading:Building,0.40,0.40,0.00, N/A
ShadingProperty Reflectance,BUILDING 1 - COMPONENT BLOCK 126 - SURFACE 4 (258),Detached Shading:Building,0.40,0.40,0.00, N/A
ShadingProperty Reflectance,Mir-BUILDING 1 - COMPONENT BLOCK 126 - SURFACE 4 (258),Detached Shading:Building,0.40,0.40,0.00, N/A
ShadingProperty Reflectance,BUILDING 1 - COMPONENT BLOCK 126 - SURFACE 5 (259),Detached Shading:Building,0.40,0.40,0.00, N/A
ShadingProperty Reflectance,Mir-BUILDING 1 - COMPONENT BLOCK 126 - SURFACE 5 (259),Detached Shading:Building,0.40,0.40,0.00, N/A
ShadingProperty Reflectance,BUILDING 1 - COMPONENT BLOCK 126 - SURFACE 6 (260),Detached Shading:Building,0.40,0.40,0.00, N/A
ShadingProperty Reflectance,Mir-BUILDING 1 - COMPONENT BLOCK 126 - SURFACE 6 (260),Detached Shading:Building,0.40,0.40,0.00, N/A
ShadingProperty Reflectance,BUILDING 1 - COMPONENT BLOCK 131 - SURFACE 1 (261),Detached Shading:Building,0.40,0.40,0.00, N/A
ShadingProperty Reflectance,Mir-BUILDING 1 - COMPONENT BLOCK 131 - SURFACE 1 (261),Detached Shading:Building,0.40,0.40,0.00, N/A
ShadingProperty Reflectance,BUILDING 1 - COMPONENT BLOCK 131 - SURFACE 2 (262),Detached Shading:Building,0.40,0.40,0.00, N/A
ShadingProperty Reflectance,Mir-BUILDING 1 - COMPONENT BLOCK 131 - SURFACE 2 (262),Detached Shading:Building,0.40,0.40,0.00, N/A
ShadingProperty Reflectance,BUILDING 1 - COMPONENT BLOCK 131 - SURFACE 3 (263),Detached Shading:Building,0.40,0.40,0.00, N/A
ShadingProperty Reflectance,Mir-BUILDING 1 - COMPONENT BLOCK 131 - SURFACE 3 (263),Detached Shading:Building,0.40,0.40,0.00, N/A
ShadingProperty Reflectance,BUILDING 1 - COMPONENT BLOCK 131 - SURFACE 4 (264),Detached Shading:Building,0.40,0.40,0.00, N/A
ShadingProperty Reflectance,Mir-BUILDING 1 - COMPONENT BLOCK 131 - SURFACE 4 (264),Detached Shading:Building,0.40,0.40,0.00, N/A
ShadingProperty Reflectance,BUILDING 1 - COMPONENT BLOCK 131 - SURFACE 5 (265),Detached Shading:Building,0.40,0.40,0.00, N/A
ShadingProperty Reflectance,Mir-BUILDING 1 - COMPONENT BLOCK 131 - SURFACE 5 (265),Detached Shading:Building,0.40,0.40,0.00, N/A
ShadingProperty Reflectance,BUILDING 1 - COMPONENT BLOCK 131 - SURFACE 6 (266),Detached Shading:Building,0.40,0.40,0.00, N/A
ShadingProperty Reflectance,Mir-BUILDING 1 - COMPONENT BLOCK 131 - SURFACE 6 (266),Detached Shading:Building,0.40,0.40,0.00, N/A
ShadingProperty Reflectance,BUILDING 1 - COMPONENT BLOCK 132 - SURFACE 1 (267),Detached Shading:Building,0.40,0.40,0.00, N/A
ShadingProperty Reflectance,Mir-BUILDING 1 - COMPONENT BLOCK 132 - SURFACE 1 (267),Detached Shading:Building,0.40,0.40,0.00, N/A
ShadingProperty Reflectance,BUILDING 1 - COMPONENT BLOCK 132 - SURFACE 2 (268),Detached Shading:Building,0.40,0.40,0.00, N/A
ShadingProperty Reflectance,Mir-BUILDING 1 - COMPONENT BLOCK 132 - SURFACE 2 (268),Detached Shading:Building,0.40,0.40,0.00, N/A
ShadingProperty Reflectance,BUILDING 1 - COMPONENT BLOCK 132 - SURFACE 3 (269),Detached Shading:Building,0.40,0.40,0.00, N/A
ShadingProperty Reflectance,Mir-BUILDING 1 - COMPONENT BLOCK 132 - SURFACE 3 (269),Detached Shading:Building,0.40,0.40,0.00, N/A
ShadingProperty Reflectance,BUILDING 1 - COMPONENT BLOCK 132 - SURFACE 4 (270),Detached Shading:Building,0.40,0.40,0.00, N/A
ShadingProperty Reflectance,Mir-BUILDING 1 - COMPONENT BLOCK 132 - SURFACE 4 (270),Detached Shading:Building,0.40,0.40,0.00, N/A
ShadingProperty Reflectance,BUILDING 1 - COMPONENT BLOCK 132 - SURFACE 5 (271),Detached Shading:Building,0.40,0.40,0.00, N/A
ShadingProperty Reflectance,Mir-BUILDING 1 - COMPONENT BLOCK 132 - SURFACE 5 (271),Detached Shading:Building,0.40,0.40,0.00, N/A
ShadingProperty Reflectance,BUILDING 1 - COMPONENT BLOCK 132 - SURFACE 6 (272),Detached Shading:Building,0.40,0.40,0.00, N/A
ShadingProperty Reflectance,Mir-BUILDING 1 - COMPONENT BLOCK 132 - SURFACE 6 (272),Detached Shading:Building,0.40,0.40,0.00, N/A
ShadingProperty Reflectance,BUILDING 1 - COMPONENT BLOCK 148 - SURFACE 1 (273),Detached Shading:Building,0.40,0.40,0.00, N/A
ShadingProperty Reflectance,Mir-BUILDING 1 - COMPONENT BLOCK 148 - SURFACE 1 (273),Detached Shading:Building,0.40,0.40,0.00, N/A
ShadingProperty Reflectance,BUILDING 1 - COMPONENT BLOCK 148 - SURFACE 2 (274),Detached Shading:Building,0.40,0.40,0.00, N/A
ShadingProperty Reflectance,Mir-BUILDING 1 - COMPONENT BLOCK 148 - SURFACE 2 (274),Detached Shading:Building,0.40,0.40,0.00, N/A
ShadingProperty Reflectance,BUILDING 1 - COMPONENT BLOCK 148 - SURFACE 3 (275),Detached Shading:Building,0.40,0.40,0.00, N/A
ShadingProperty Reflectance,Mir-BUILDING 1 - COMPONENT BLOCK 148 - SURFACE 3 (275),Detached Shading:Building,0.40,0.40,0.00, N/A
ShadingProperty Reflectance,BUILDING 1 - COMPONENT BLOCK 148 - SURFACE 4 (276),Detached Shading:Building,0.40,0.40,0.00, N/A
ShadingProperty Reflectance,Mir-BUILDING 1 - COMPONENT BLOCK 148 - SURFACE 4 (276),Detached Shading:Building,0.40,0.40,0.00, N/A
ShadingProperty Reflectance,BUILDING 1 - COMPONENT BLOCK 148 - SURFACE 5 (277),Detached Shading:Building,0.40,0.40,0.00, N/A
ShadingProperty Reflectance,Mir-BUILDING 1 - COMPONENT BLOCK 148 - SURFACE 5 (277),Detached Shading:Building,0.40,0.40,0.00, N/A
ShadingProperty Reflectance,BUILDING 1 - COMPONENT BLOCK 148 - SURFACE 6 (278),Detached Shading:Building,0.40,0.40,0.00, N/A
ShadingProperty Reflectance,Mir-BUILDING 1 - COMPONENT BLOCK 148 - SURFACE 6 (278),Detached Shading:Building,0.40,0.40,0.00, N/A
ShadingProperty Reflectance,BUILDING 1 - COMPONENT BLOCK 149 - SURFACE 1 (279),Detached Shading:Building,0.40,0.40,0.00, N/A
ShadingProperty Reflectance,Mir-BUILDING 1 - COMPONENT BLOCK 149 - SURFACE 1 (279),Detached Shading:Building,0.40,0.40,0.00, N/A
ShadingProperty Reflectance,BUILDING 1 - COMPONENT BLOCK 149 - SURFACE 2 (280),Detached Shading:Building,0.40,0.40,0.00, N/A
ShadingProperty Reflectance,Mir-BUILDING 1 - COMPONENT BLOCK 149 - SURFACE 2 (280),Detached Shading:Building,0.40,0.40,0.00, N/A
ShadingProperty Reflectance,BUILDING 1 - COMPONENT BLOCK 149 - SURFACE 3 (281),Detached Shading:Building,0.40,0.40,0.00, N/A
[...]
Frame/Divider Surface,1,Divider:DividedLite,3FXOFFICEXAC1:OFFICE_WALL_4_0_0_1_0_1_WIN,,,N/A,N/A,,0.17,0.17,*,N/A,N/A,2.00E-002,N/A
HeatTransfer Surface,3FXOFFICEXAC1:OFFICE_WALL_4_0_0_2_0_0_WIN,Window,3FXOFFICEXAC1:OFFICE_WALL_4_0_0,Window5 Detailed Fenestration,BPS_BASELINE_EXTERNAL GLAZING_IMPROVED - 1003,N/A,2.430,No,16.79,16.96,16.96,302.00,90.00,5.47,3.10,0.00,ExternalEnvironment,DOE-2,ASHRAETARP,SunExposed,WindExposed,0.50,0.50,1.00,4.45E-005,4
Frame/Divider Surface,1,Frame,3FXOFFICEXAC1:OFFICE_WALL_4_0_0_2_0_0_WIN,Window5 Detailed Fenestration,,N/A,N/A,,0.69,0.69,*,N/A,N/A,4.00E-002,N/A
Frame/Divider Surface,1,Divider:DividedLite,3FXOFFICEXAC1:OFFICE_WALL_4_0_0_2_0_0_WIN,,,N/A,N/A,,0.17,0.17,*,N/A,N/A,2.00E-002,N/A
HeatTransfer Surface,3FXOFFICEXAC1:OFFICE_WALL_5_0_0,Wall,,CTF - ConductionTransferFunction,BPS_BASELINE_WALL,0.550,0.508,,32.54,52.00,33.53,212.00,90.00,13.00,4.00,0.00,ExternalEnvironment,DOE-2,ASHRAETARP,SunExposed,WindExposed,0.50,0.50,0.97,3.19E-002,4
HeatTransfer Surface,3FXOFFICEXAC1:OFFICE_WALL_5_0_0_0_0_1_WIN,Window,3FXOFFICEXAC1:OFFICE_WALL_5_0_0,Window5 Detailed Fenestration,BPS_BASELINE_EXTERNAL GLAZING_IMPROVED - 1003,N/A,2.430,No,9.12,9.24,9.24,212.00,90.00,3.16,2.92,0.00,ExternalEnvironment,DOE-2,ASHRAETARP,SunExposed,WindExposed,0.50,0.50,0.74,0.26,4
Frame/Divider Surface,1,Frame,3FXOFFICEXAC1:OFFICE_WALL_5_0_0_0_0_1_WIN,Window5 Detailed Fenestration,,N/A,N/A,,0.49,0.49,*,N/A,N/A,4.00E-002,N/A
Frame/Divider Surface,1,Divider:DividedLite,3FXOFFICEXAC1:OFFICE_WALL_5_0_0_0_0_1_WIN,,,N/A,N/A,,0.12,0.12,*,N/A,N/A,2.00E-002,N/A
HeatTransfer Surface,3FXOFFICEXAC1:OFFICE_WALL_5_0_0_1_0_0_WIN,Window,3FXOFFICEXAC1:OFFICE_WALL_5_0_0,Window5 Detailed Fenestration,BPS_BASELINE_EXTERNAL GLAZING_IMPROVED - 1003,N/A,2.430,No,9.12,9.24,9.24,212.00,90.00,3.16,2.92,0.00,ExternalEnvironment,DOE-2,ASHRAETARP,SunExposed,WindExposed,0.50,0.50,0.74,0.26,4
Frame/Divider Surface,1,Frame,3FXOFFICEXAC1:OFFICE_WALL_5_0_0_1_0_0_WIN,Window5 Detailed Fenestration,,N/A,N/A,,0.49,0.49,*,N/A,N/A,4.00E-002,N/A
Frame/Divider Surface,1,Divider:DividedLite,3FXOFFICEXAC1:OFFICE_WALL_5_0_0_1_0_0_WIN,,,N/A,N/A,,0.12,0.12,*,N/A,N/A,2.00E-002,N/A
HeatTransfer Surface,3FXOFFICEXAC1:OFFICE_FLOOR_0_0_10066,Floor,,CTF - ConductionTransferFunction,PROJECT INTERNAL FLOOR_REVERSED_REV,14.000,3.180,,227.50,227.50,227.50,32.00,180.00,13.00,17.50,0.00,2FXOFFICEXAC:OFFICE_CEILING_1_0_0,Other/Same Surface Int Conv,ASHRAETARP,NoSun,NoWind,0.00,0.00,1.00,0.00,4
HeatTransfer Surface,3FXOFFICEXAC1:OFFICE_CEILING_1_0_10125,Roof,,CTF - ConductionTransferFunction,PROJECT INTERNAL FLOOR_REV,14.000,3.848,,227.50,227.50,227.50,212.00,0.00,13.00,17.50,0.00,4FXOFFICEXAC1:OFFICE_FLOOR_0_0_0,Other/Same Surface Int Conv,ASHRAETARP,NoSun,NoWind,0.00,1.00,0.00,1.00,4
Zone Surfaces,BLOCK3:ZONE1,8
HeatTransfer Surface,BLOCK3:ZONE1_WALL_1_0_0,Wall,,CTF - ConductionTransferFunction,BPS_BASELINE_WALL,0.550,0.508,,1.60,1.60,1.60,32.00,88.00,8.00,0.20,0.00,ExternalEnvironment,DOE-2,ASHRAETARP,SunExposed,WindExposed,0.48,0.52,0.99,1.22E-002,4
HeatTransfer Surface,BLOCK3:ZONE1_WALL_2_0_0,Wall,,CTF - ConductionTransferFunction,BPS_BASELINE_WALL,0.550,0.508,,6.90,6.90,6.90,122.00,90.00,34.50,0.20,0.00,ExternalEnvironment,DOE-2,ASHRAETARP,SunExposed,WindExposed,0.50,0.50,1.00,2.00E-004,4
HeatTransfer Surface,BLOCK3:ZONE1_WALL_3_0_0,Wall,,CTF - ConductionTransferFunction,BPS_BASELINE_WALL,0.550,0.508,,6.90,6.90,6.90,302.00,90.00,34.50,0.20,0.00,ExternalEnvironment,DOE-2,ASHRAETARP,SunExposed,WindExposed,0.50,0.50,1.00,2.00E-004,4
HeatTransfer Surface,BLOCK3:ZONE1_WALL_4_0_0,Wall,,CTF - ConductionTransferFunction,BPS_BASELINE_WALL,0.550,0.508,,1.60,1.60,1.60,212.00,92.00,8.00,0.20,0.00,ExternalEnvironment,DOE-2,ASHRAETARP,SunExposed,WindExposed,0.52,0.48,1.00,1.93E-004,4
HeatTransfer Surface,BLOCK3:ZONE1_EXTFLOOR_0_0_0,Floor,,CTF - ConductionTransferFunction,PROJECT EXTERNAL FLOOR,0.264,0.248,,22.08,275.97,22.08,32.00,178.00,8.00,34.50,0.00,ExternalEnvironment,DOE-2,ASHRAETARP,SunExposed,WindExposed,1.00,3.05E-004,1.00,0.00,4
HeatTransfer Surface,BLOCK3:ZONE1_EXTFLOOR_0_0_0_0_0_0_HOLE,Window,BLOCK3:ZONE1_EXTFLOOR_0_0_0,Window5 Detailed Fenestration,PERFECTLY CLEAR - 1005,N/A,3.124,No,253.90,253.90,253.90,32.00,178.00,7.47,33.97,0.00,ExternalEnvironment,DOE-2,ASHRAETARP,SunExposed,WindExposed,1.00,3.05E-004,1.00,0.00,4
HeatTransfer Surface,BLOCK3:ZONE1_ROOF_5_0_0,Roof,,CTF - ConductionTransferFunction,PROJECT PITCHED ROOF,0.164,0.159,,22.08,275.97,25.39,212.00,2.00,8.00,34.50,0.00,ExternalEnvironment,DOE-2,ASHRAETARP,SunExposed,WindExposed,3.05E-004,1.00,3.16E-004,1.00,4
HeatTransfer Surface,BLOCK3:ZONE1_ROOF_5_0_0_0_0_0_WIN,Window,BLOCK3:ZONE1_ROOF_5_0_0,Window5 Detailed Fenestration,PROJECT ROOF GLAZING - 1006,N/A,2.178,No,249.76,250.59,250.59,212.00,2.00,7.39,33.89,0.00,ExternalEnvironment,DOE-2,ASHRAETARP,SunExposed,WindExposed,3.05E-004,1.00,3.05E-004,1.00,4
Frame/Divider Surface,2,Frame,BLOCK3:ZONE1_ROOF_5_0_0_0_0_0_WIN,Window5 Detailed Fenestration,,N/A,N/A,,3.31,3.31,*,N/A,N/A,4.00E-002,N/A
Frame/Divider Surface,2,Divider:DividedLite,BLOCK3:ZONE1_ROOF_5_0_0_0_0_0_WIN,,,N/A,N/A,,0.83,0.83,*,N/A,N/A,2.00E-002,N/A
! <Environment>,Environment Name,Environment Type, Start Date, End Date, Start DayOfWeek, Duration {#days}, Source:Start DayOfWeek,  Use Daylight Saving, Use Holidays, Apply Weekend Holiday Rule,  Use Rain Values, Use Snow Values, Sky Temperature Model
! <Environment:Special Days>, Special Day Name, Special Day Type, Source, Start Date, Duration {#days}
! <Environment:Daylight Saving>, Daylight Saving Indicator, Source, Start Date, End Date
! <Environment:WarmupDays>, NumberofWarmupDays
Environment,GREEN STUDIO (01-03:31-03),WeatherFileRunPeriod,03/01/2002,03/31/2002,Friday,31,Use RunPeriod Specified Day,Yes,No,Yes,Yes,Yes,Clark and Allen
Environment:Daylight Saving,No,
Environment:WarmupDays,  7
! <Warmup Convergence Information>,Zone Name,Environment Type/Name,Average Warmup Temperature Difference {deltaC},Std Dev Warmup Temperature Difference {deltaC},Max Temperature Pass/Fail Convergence,Min Temperature Pass/Fail Convergence,Average Warmup Load Difference {W},Std Dev Warmup Load Difference {W},Heating Load Pass/Fail Convergence,Cooling Load Pass/Fail Convergence
 Warmup Convergence Information,BASEMENT2:B1XSERVERROOM,RunPeriod: GREEN STUDIO (01-03:31-03),2.1028975935E-002,2.0655893004E-002,Pass,Pass,0.0000000000,0.0000000000,Pass,Pass
 Warmup Convergence Information,BASEMENT2:B1XCORE,RunPeriod: GREEN STUDIO (01-03:31-03),2.9157744702E-002,4.0504433390E-002,Pass,Pass,0.0000000000,0.0000000000,Pass,Pass
 Warmup Convergence Information,BASEMENT2:B1XCORRIDOR,RunPeriod: GREEN STUDIO (01-03:31-03),2.2154722573E-002,7.2386339084E-002,Pass,Pass,0.3772844478,2.9495443813,Pass,Pass
 Warmup Convergence Information,BASEMENT2:B1XEQUIPMENTROOM,RunPeriod: GREEN STUDIO (01-03:31-03),1.7147894167E-002,5.4078811792E-002,Pass,Pass,0.1940586483,1.0265678028,Pass,Pass
 Warmup Convergence Information,BASEMENT2:B1XGYM,RunPeriod: GREEN STUDIO (01-03:31-03),9.1067291957E-002,0.2845786629,Pass,Pass,5.4949405249,51.7100041465,Pass,Pass
 Warmup Convergence Information,BASEMENT2:B1XSHOP,RunPeriod: GREEN STUDIO (01-03:31-03),0.1227198573,0.3764182853,Pass,Pass,0.9836149785,8.2815971751,Pass,Pass
 Warmup Convergence Information,BASEMENT2:B1XCANTEEN,RunPeriod: GREEN STUDIO (01-03:31-03),8.6882443061E-002,0.2901589751,Pass,Pass,1.7248791196,15.5613975727,Pass,Pass
 Warmup Convergence Information,1FXEXHIBITION:ZONE1,RunPeriod: GREEN STUDIO (01-03:31-03),4.3775440283E-002,0.1721814315,Pass,Pass,1.2084263469,10.3241319136,Pass,Pass
 Warmup Convergence Information,1FXRECEPTION:ZONE1,RunPeriod: GREEN STUDIO (01-03:31-03),3.6861916434E-002,0.1319156877,Pass,Pass,0.7120373752,5.6625567996,Pass,Pass
 Warmup Convergence Information,1FXACCEEORYROOM:ZONE1,RunPeriod: GREEN STUDIO (01-03:31-03),3.3341981056E-002,0.1251906112,Pass,Pass,0.5164700648,4.1884048259,Pass,Pass
 Warmup Convergence Information,1FXHALL:ZONE1,RunPeriod: GREEN STUDIO (01-03:31-03),3.9864079592E-002,0.1378195300,Pass,Pass,0.9371133680,6.9224229568,Pass,Pass
 Warmup Convergence Information,1FXLECTUREHALL:ZONE2,RunPeriod: GREEN STUDIO (01-03:31-03),4.4362728538E-002,0.1627645835,Pass,Pass,1.1000148771,8.9978509221,Pass,Pass
 Warmup Convergence Information,1FXLECTUREXRESTROOM:RESTROOM,RunPeriod: GREEN STUDIO (01-03:31-03),1.3599372079E-002,1.2149301096E-002,Pass,Pass,0.0000000000,0.0000000000,Pass,Pass
 Warmup Convergence Information,1FXLECTUREXRESTROOM:LECTURE,RunPeriod: GREEN STUDIO (01-03:31-03),3.3334191815E-002,0.1224386155,Pass,Pass,0.7128243393,5.5918613352,Pass,Pass
 Warmup Convergence Information,1FXACCESSORYROOM:ZONE1,RunPeriod: GREEN STUDIO (01-03:31-03),2.9577925504E-002,0.1114353484,Pass,Pass,0.3975318375,3.1129510741,Pass,Pass
 Warmup Convergence Information,1FXOFFICE:ZONE1,RunPeriod: GREEN STUDIO (01-03:31-03),4.1483769989E-002,0.1718296920,Pass,Pass,0.8047358664,6.7338708458,Pass,Pass
 Warmup Convergence Information,1FXSERVICEROOM:ZONE1,RunPeriod: GREEN STUDIO (01-03:31-03),2.2105505195E-002,8.0325441675E-002,Pass,Pass,0.3230201223,2.4724126639,Pass,Pass
 Warmup Convergence Information,2FXLAB:ZONE1,RunPeriod: GREEN STUDIO (01-03:31-03),4.1977093714E-002,0.1763139372,Pass,Pass,1.0314380473,7.5048498757,Pass,Pass
 Warmup Convergence Information,2FXLABXRESTROOM:RESTROOM,RunPeriod: GREEN STUDIO (01-03:31-03),1.4530045589E-002,1.5038227913E-002,Pass,Pass,0.0000000000,0.0000000000,Pass,Pass
 Warmup Convergence Information,2FXLABXRESTROOM:LAB,RunPeriod: GREEN STUDIO (01-03:31-03),3.9744254039E-002,0.1660235529,Pass,Pass,0.9862820557,8.2711511921,Pass,Pass
 Warmup Convergence Information,2FXOFFICEXLAB:OFFICE,RunPeriod: GREEN STUDIO (01-03:31-03),4.5362862498E-002,0.1984300539,Pass,Pass,0.8433261824,7.0339221401,Pass,Pass
 Warmup Convergence Information,2FXOFFICEXLAB:AC,RunPeriod: GREEN STUDIO (01-03:31-03),2.3561253211E-002,1.8966588287E-002,Pass,Pass,0.0000000000,0.0000000000,Pass,Pass
 Warmup Convergence Information,2FXOFFICEXLAB:LAB,RunPeriod: GREEN STUDIO (01-03:31-03),4.3300168703E-002,0.1923785026,Pass,Pass,1.6921793880,11.0080752366,Pass,Pass
 Warmup Convergence Information,2FXMEETINGROOM:ZONE1,RunPeriod: GREEN STUDIO (01-03:31-03),5.1464243999E-002,0.2248044059,Pass,Pass,1.1910828319,10.7885998654,Pass,Pass
 Warmup Convergence Information,2FXOFFICEXAC:OFFICE,RunPeriod: GREEN STUDIO (01-03:31-03),4.4507376411E-002,0.1769577621,Pass,Pass,1.1454933723,9.8930712654,Pass,Pass
 Warmup Convergence Information,2FXLABXRESTROOM1:RESTROOM,RunPeriod: GREEN STUDIO (01-03:31-03),1.5421836369E-002,1.6355409844E-002,Pass,Pass,0.0000000000,0.0000000000,Pass,Pass
 Warmup Convergence Information,2FXLABXRESTROOM1:LAB,RunPeriod: GREEN STUDIO (01-03:31-03),4.2167100952E-002,0.1720806479,Pass,Pass,3.0830003199,21.3699158112,Pass,Pass
 Warmup Convergence Information,2FXLAB1:ZONE1,RunPeriod: GREEN STUDIO (01-03:31-03),4.3895503437E-002,0.1836256579,Pass,Pass,0.9203178321,7.6149070448,Pass,Pass
 Warmup Convergence Information,2FXOFFICEXLABQ1:OFFICE,RunPeriod: GREEN STUDIO (01-03:31-03),4.5458990473E-002,0.1872755964,Pass,Pass,1.1373982316,10.0066306364,Pass,Pass
 Warmup Convergence Information,2FXOFFICEXLABQ1:AC,RunPeriod: GREEN STUDIO (01-03:31-03),1.5438825935E-002,1.3427972969E-002,Pass,Pass,0.0000000000,0.0000000000,Pass,Pass
 Warmup Convergence Information,2FXOFFICEXLABQ1:LAB,RunPeriod: GREEN STUDIO (01-03:31-03),4.4302926560E-002,0.1833279872,Pass,Pass,1.2968910048,10.8387287122,Pass,Pass
 Warmup Convergence Information,2FXMEETINGROOM1:ZONE1,RunPeriod: GREEN STUDIO (01-03:31-03),5.1165632364E-002,0.2228021067,Pass,Pass,1.2280359018,11.1473888778,Pass,Pass
 Warmup Convergence Information,3FXLAB:ZONE1,RunPeriod: GREEN STUDIO (01-03:31-03),4.6052892762E-002,0.1967063093,Pass,Pass,0.9503452674,8.2079470187,Pass,Pass
 Warmup Convergence Information,3FXLABXRESTROOM:RESTROOM,RunPeriod: GREEN STUDIO (01-03:31-03),1.4823411489E-002,1.6336854581E-002,Pass,Pass,0.0000000000,0.0000000000,Pass,Pass
 Warmup Convergence Information,3FXLABXRESTROOM:LAB,RunPeriod: GREEN STUDIO (01-03:31-03),4.2221399774E-002,0.1746151214,Pass,Pass,1.4808328067,10.4070435442,Pass,Pass
 Warmup Convergence Information,3FXMEETINGROOM:ZONE1,RunPeriod: GREEN STUDIO (01-03:31-03),5.3684107592E-002,0.2368604963,Pass,Pass,1.3835429112,12.5782988632,Pass,Pass
 Warmup Convergence Information,2FXFFCXC1XDYLGHT:OFFICE,RunPeriod: GREEN STUDIO (01-03:31-03),4.4645313680E-002,0.1794115282,Pass,Pass,1.0691756652,9.1894781373,Pass,Pass
 Warmup Convergence Information,3FXOFFICEXLAB1:OFFICE,RunPeriod: GREEN STUDIO (01-03:31-03),4.5613351378E-002,0.1905948854,Pass,Pass,1.0966066696,9.6517799366,Pass,Pass
 Warmup Convergence Information,3FXOFFICEXLAB1:LAB,RunPeriod: GREEN STUDIO (01-03:31-03),4.3281297483E-002,0.1830788353,Pass,Pass,1.3147671850,9.6976001094,Pass,Pass
 Warmup Convergence Information,3FXOFFICEXLAB1:AC,RunPeriod: GREEN STUDIO (01-03:31-03),1.5077597279E-002,1.3343722446E-002,Pass,Pass,0.0000000000,0.0000000000,Pass,Pass
 Warmup Convergence Information,3FXOFFICEXLAB:OFFICE,RunPeriod: GREEN STUDIO (01-03:31-03),4.5963026801E-002,0.1855969017,Pass,Pass,1.2862007823,11.4292219411,Pass,Pass
 Warmup Convergence Information,3FXOFFICEXLAB:RESTROOM,RunPeriod: GREEN STUDIO (01-03:31-03),1.5129054850E-002,1.3578331051E-002,Pass,Pass,0.0000000000,0.0000000000,Pass,Pass
 Warmup Convergence Information,3FXOFFICEXLAB:LAB,RunPeriod: GREEN STUDIO (01-03:31-03),4.4381557891E-002,0.1818731447,Pass,Pass,1.2629648009,10.6527618565,Pass,Pass
 Warmup Convergence Information,3FXLABXRESTROOM1:RESTROOM,RunPeriod: GREEN STUDIO (01-03:31-03),1.6496212914E-002,1.7259077645E-002,Pass,Pass,0.0000000000,0.0000000000,Pass,Pass
 Warmup Convergence Information,3FXLABXRESTROOM1:LAB,RunPeriod: GREEN STUDIO (01-03:31-03),4.3737796278E-002,0.1779402852,Pass,Pass,1.2650198203,10.7624589515,Pass,Pass
 Warmup Convergence Information,3FXLAB1:ZONE1,RunPeriod: GREEN STUDIO (01-03:31-03),4.7298654611E-002,0.1994880667,Pass,Pass,0.9944539326,8.6586491533,Pass,Pass
 Warmup Convergence Information,3FXMEETINGROOM1:ZONE1,RunPeriod: GREEN STUDIO (01-03:31-03),5.3329667778E-002,0.2346137890,Pass,Pass,1.4288669471,13.0255657457,Pass,Pass
 Warmup Convergence Information,4FXLAB:ZONE1,RunPeriod: GREEN STUDIO (01-03:31-03),4.7331656082E-002,0.2010056153,Pass,Pass,1.0329173537,9.0371822432,Pass,Pass
 Warmup Convergence Information,4FXLABXRESTROOM:RESTROOM,RunPeriod: GREEN STUDIO (01-03:31-03),1.5097083549E-002,1.7065220592E-002,Pass,Pass,0.0000000000,0.0000000000,Pass,Pass
 Warmup Convergence Information,4FXLABXRESTROOM:LAB,RunPeriod: GREEN STUDIO (01-03:31-03),4.3137518282E-002,0.1773692225,Pass,Pass,1.3192859918,10.2984366907,Pass,Pass
 Warmup Convergence Information,4FXMEETINGROOM:ZONE1,RunPeriod: GREEN STUDIO (01-03:31-03),5.3904321529E-002,0.2386010865,Pass,Pass,1.3892376587,12.6681405266,Pass,Pass
 Warmup Convergence Information,4FXOFFICEXLAB:OFFICE,RunPeriod: GREEN STUDIO (01-03:31-03),4.5413671808E-002,0.1880994178,Pass,Pass,0.9830657911,8.5096068978,Pass,Pass
 Warmup Convergence Information,4FXOFFICEXLAB:AC,RunPeriod: GREEN STUDIO (01-03:31-03),1.5185643790E-002,1.3718502542E-002,Pass,Pass,0.0000000000,0.0000000000,Pass,Pass
 Warmup Convergence Information,4FXOFFICEXLAB:LAB,RunPeriod: GREEN STUDIO (01-03:31-03),4.3935335589E-002,0.1854398176,Pass,Pass,1.0834463599,8.6936835342,Pass,Pass
 Warmup Convergence Information,4FXOFFICEXLAB1:OFFICE,RunPeriod: GREEN STUDIO (01-03:31-03),4.5874076143E-002,0.1873815274,Pass,Pass,1.2458922845,11.1084108127,Pass,Pass
 Warmup Convergence Information,4FXOFFICEXLAB1:AC,RunPeriod: GREEN STUDIO (01-03:31-03),1.5174085344E-002,1.3787684875E-002,Pass,Pass,0.0000000000,0.0000000000,Pass,Pass
 Warmup Convergence Information,4FXOFFICEXLAB1:LAB,RunPeriod: GREEN STUDIO (01-03:31-03),4.4284332809E-002,0.1828177723,Pass,Pass,1.2286821517,10.6073659502,Pass,Pass
 Warmup Convergence Information,4FXLABXRESTROOMQ1:LAB,RunPeriod: GREEN STUDIO (01-03:31-03),4.4086691632E-002,0.1798244418,Pass,Pass,1.2920999349,11.1826633561,Pass,Pass
 Warmup Convergence Information,4FXLABXRESTROOMQ1:RESTROOM,RunPeriod: GREEN STUDIO (01-03:31-03),1.5269453228E-002,1.7233361883E-002,Pass,Pass,0.0000000000,0.0000000000,Pass,Pass
 Warmup Convergence Information,4FXLAB1:ZONE1,RunPeriod: GREEN STUDIO (01-03:31-03),4.7900476911E-002,0.2023840611,Pass,Pass,1.0664107079,9.4184699748,Pass,Pass
 Warmup Convergence Information,4FXMEETINGROOM1:ZONE1,RunPeriod: GREEN STUDIO (01-03:31-03),5.3724597870E-002,0.2375732995,Pass,Pass,1.3969627030,12.7477903019,Pass,Pass
 Warmup Convergence Information,4FXFFCXCXDYLGHTNG:OFFICE,RunPeriod: GREEN STUDIO (01-03:31-03),4.6355222965E-002,0.1845258574,Pass,Pass,1.2733691912,11.3131284109,Pass,Pass
 Warmup Convergence Information,4FXOFFICEXAC1:OFFICE,RunPeriod: GREEN STUDIO (01-03:31-03),4.6381478248E-002,0.1843574263,Pass,Pass,1.2884925833,11.4535038278,Pass,Pass
 Warmup Convergence Information,5FXOFFICEXAC:OFFICE,RunPeriod: GREEN STUDIO (01-03:31-03),4.5975099749E-002,0.1856161728,Pass,Pass,1.2844247274,11.4169709231,Pass,Pass
 Warmup Convergence Information,5FXFFCXC1XDYLGHTNG:OFFICE,RunPeriod: GREEN STUDIO (01-03:31-03),4.5972078291E-002,0.1853978287,Pass,Pass,1.2927313478,11.4986066738,Pass,Pass
 Warmup Convergence Information,5FXOFFICEXLAB:OFFICE,RunPeriod: GREEN STUDIO (01-03:31-03),4.5819781097E-002,0.1901880240,Pass,Pass,1.2559354502,11.2402341606,Pass,Pass
 Warmup Convergence Information,5FXOFFICEXLAB:AC,RunPeriod: GREEN STUDIO (01-03:31-03),1.6051858349E-002,1.4780068677E-002,Pass,Pass,0.0000000000,0.0000000000,Pass,Pass
 Warmup Convergence Information,5FXOFFICEXLAB:LAB,RunPeriod: GREEN STUDIO (01-03:31-03),4.4325825417E-002,0.1857353328,Pass,Pass,1.2417754742,10.5303539447,Pass,Pass
 Warmup Convergence Information,5FXOFFICEXLABQ1:OFFICE,RunPeriod: GREEN STUDIO (01-03:31-03),4.5283218965E-002,0.1888911315,Pass,Pass,1.1328784214,10.0248191256,Pass,Pass
 Warmup Convergence Information,5FXOFFICEXLABQ1:AC,RunPeriod: GREEN STUDIO (01-03:31-03),1.5917067842E-002,1.4556575531E-002,Pass,Pass,0.0000000000,0.0000000000,Pass,Pass
 Warmup Convergence Information,5FXOFFICEXLABQ1:LAB,RunPeriod: GREEN STUDIO (01-03:31-03),4.3717439219E-002,0.1842438108,Pass,Pass,1.1852975255,9.7854608005,Pass,Pass
 Warmup Convergence Information,5FXLABXRESTROOM:RESTROOM,RunPeriod: GREEN STUDIO (01-03:31-03),1.6293009047E-002,1.7575587413E-002,Pass,Pass,0.0000000000,0.0000000000,Pass,Pass
 Warmup Convergence Information,5FXLABXRESTROOM:LAB,RunPeriod: GREEN STUDIO (01-03:31-03),4.3446187484E-002,0.1807539915,Pass,Pass,1.2092707254,10.2050027825,Pass,Pass
 Warmup Convergence Information,5FXLAB:ZONE1,RunPeriod: GREEN STUDIO (01-03:31-03),4.7435893459E-002,0.2012345875,Pass,Pass,1.0499253207,9.1705020760,Pass,Pass
 Warmup Convergence Information,5FXMEETINGROOM:ZONE1,RunPeriod: GREEN STUDIO (01-03:31-03),5.2443376537E-002,0.2328541375,Pass,Pass,1.3762778576,12.5164885276,Pass,Pass
 Warmup Convergence Information,5FXMEETINGROOM1:ZONE1,RunPeriod: GREEN STUDIO (01-03:31-03),5.2412235142E-002,0.2327458011,Pass,Pass,1.3654394069,12.4115479485,Pass,Pass
 Warmup Convergence Information,5FXLAB1:ZONE1,RunPeriod: GREEN STUDIO (01-03:31-03),4.7492221279E-002,0.2035553097,Pass,Pass,1.1154652040,9.8509443306,Pass,Pass
 Warmup Convergence Information,5FXLABXRESTROOM1:LAB,RunPeriod: GREEN STUDIO (01-03:31-03),4.4119924897E-002,0.1828323540,Pass,Pass,1.2714894787,10.9575790229,Pass,Pass
 Warmup Convergence Information,5FXLABXRESTROOM1:RESTROOM,RunPeriod: GREEN STUDIO (01-03:31-03),1.6441492123E-002,1.7823198818E-002,Pass,Pass,0.0000000000,0.0000000000,Pass,Pass
 Warmup Convergence Information,3FXFFCXCXDYLGHTNG:OFFICE,RunPeriod: GREEN STUDIO (01-03:31-03),4.6182958703E-002,0.1852631137,Pass,Pass,1.2019077170,10.6285589574,Pass,Pass
 Warmup Convergence Information,3FXOFFICEXAC1:OFFICE,RunPeriod: GREEN STUDIO 