Program Version,EnergyPlus, Version 23.2.0-7636e6b3e9, YMD=2024.02.28 13:33,
   ************* Beginning Zone Sizing Calculations
   ** Warning ** Weather file location will be used rather than entered (IDF) Location object.
   **   ~~~   ** ..Location object=GREEN STUDIO (01-01:31-12)  (01-01:31-12)
   **   ~~~   ** ..Weather File Location=Tampa International Ap FL USA TMY3 WMO#=722110
   **   ~~~   ** ..due to location differences, Latitude difference=[26.60] degrees, Longitude difference=[186.51] degrees.
   **   ~~~   ** ..Time Zone difference=[12.0] hour(s), Elevation difference=[62.50] percent, [10.00] meters.
   ** Warning ** GetSurfaceData: Construction PROJECT PARTITION of interzone surface BASEMENT2:B1XSERVERROOM_PARTITION_2_0_0 does not have the same materials in the reverse order as the construction PROJECT PARTITION_REV of adjacent surface BASEMENT2:B1XCORRIDOR_PARTITION_4_0_10006
   **   ~~~   ** or the properties of the reversed layers are not correct due to differing layer front and back side values
   **   ~~~   ** ...but Nominal U values are similar, diff=[0.0000] ... simulation proceeds.
   **   ~~~   ** ...if the two zones are expected to have significantly different temperatures, the proper "reverse" construction should be created.
   **   ~~~   ** ...this problem for this pair will not be reported again.
   ** Warning ** GetSurfaceData: Entered Zone Floor Area(s) differ more than 5% from the sum of the Space Floor Area(s).
   **   ~~~   ** ...use Output:Diagnostics,DisplayExtraWarnings; to show more details on individual zones.
   ** Warning ** WindowMaterial:Blind="20001", Illegal value combination.
   **   ~~~   ** Minimum Slat Angle=[0.0] is less than the smallest allowed by slat dimensions and spacing, min=[2.9] deg.
   **   ~~~   ** Minimum Slat Angle will be set to 2.9 deg.
   ** Warning ** WindowMaterial:Blind="20001", Illegal value combination.
   **   ~~~   ** Maximum Slat Angle=[180.0] is greater than the largest allowed by slat dimensions and spacing, [177.1] deg.
   **   ~~~   ** Maximum Slat Angle will be set to 177.1 deg.
   ** Warning ** GetSurfaceData: There are 10 window/glass door(s) that may cause inaccurate shadowing due to Solar Distribution.
   **   ~~~   ** For explicit details on each window, use Output:Diagnostics,DisplayExtraWarnings;
   ************* Note that the following warning(s) may/will occur if you have not enclosed your zone completely.
   ** Warning ** Entered Zone Volumes differ from calculated zone volume(s).
   **   ~~~   ** ...use Output:Diagnostics,DisplayExtraWarnings; to show more details on individual zones.
   ** Warning ** CheckUsedConstructions: There are 7 nominally unused constructions in input.
   **   ~~~   ** For explicit details on each unused construction, use Output:Diagnostics,DisplayExtraWarnings;
   ** Warning ** GetInternalHeatGains: People="PEOPLE BASEMENT2:B1XCORE" has comfort related schedules but no thermal comfort model selected.
   **   ~~~   ** If schedules are specified for air velocity, clothing insulation, and/or work efficiency but no thermal comfort
   **   ~~~   ** thermal comfort model is selected, the schedules will be listed as unused schedules in the .err file.
   **   ~~~   ** To avoid these errors, select a valid thermal comfort model or eliminate these schedules in the PEOPLE input.
   ** Warning ** GetInternalHeatGains: People="PEOPLE BASEMENT2:B1XGYM" has comfort related schedules but no thermal comfort model selected.
   **   ~~~   ** If schedules are specified for air velocity, clothing insulation, and/or work efficiency but no thermal comfort
   **   ~~~   ** thermal comfort model is selected, the schedules will be listed as unused schedules in the .err file.
   **   ~~~   ** To avoid these errors, select a valid thermal comfort model or eliminate these schedules in the PEOPLE input.
   ** Warning ** GetInternalHeatGains: People="PEOPLE BASEMENT2:B1XSHOP" has comfort related schedules but no thermal comfort model selected.
   **   ~~~   ** If schedules are specified for air velocity, clothing insulation, and/or work efficiency but no thermal comfort
   **   ~~~   ** thermal comfort model is selected, the schedules will be listed as unused schedules in the .err file.
   **   ~~~   ** To avoid these errors, select a valid thermal comfort model or eliminate these schedules in the PEOPLE input.
   ** Warning ** GetInternalHeatGains: People="PEOPLE BASEMENT2:B1XCANTEEN" has comfort related schedules but no thermal comfort model selected.
   **   ~~~   ** If schedules are specified for air velocity, clothing insulation, and/or work efficiency but no thermal comfort
   **   ~~~   ** thermal comfort model is selected, the schedules will be listed as unused schedules in the .err file.
   **   ~~~   ** To avoid these errors, select a valid thermal comfort model or eliminate these schedules in the PEOPLE input.
   ** Warning ** GetInternalHeatGains: People="PEOPLE 1FXEXHIBITION:ZONE1" has comfort related schedules but no thermal comfort model selected.
   **   ~~~   ** If schedules are specified for air velocity, clothing insulation, and/or work efficiency but no thermal comfort
   **   ~~~   ** thermal comfort model is selected, the schedules will be listed as unused schedules in the .err file.
   **   ~~~   ** To avoid these errors, select a valid thermal comfort model or eliminate these schedules in the PEOPLE input.
   ** Warning ** GetInternalHeatGains: People="PEOPLE 1FXRECEPTION:ZONE1" has comfort related schedules but no thermal comfort model selected.
   **   ~~~   ** If schedules are specified for air velocity, clothing insulation, and/or work efficiency but no thermal comfort
   **   ~~~   ** thermal comfort model is selected, the schedules will be listed as unused schedules in the .err file.
   **   ~~~   ** To avoid these errors, select a valid thermal comfort model or eliminate these schedules in the PEOPLE input.
   ** Warning ** GetInternalHeatGains: People="PEOPLE 1FXACCEEORYROOM:ZONE1" has comfort related schedules but no thermal comfort model selected.
   **   ~~~   ** If schedules are specified for air velocity, clothing insulation, and/or work efficiency but no thermal comfort
   **   ~~~   ** thermal comfort model is selected, the schedules will be listed as unused schedules in the .err file.
   **   ~~~   ** To avoid these errors, select a valid thermal comfort model or eliminate these schedules in the PEOPLE input.
   ** Warning ** GetInternalHeatGains: People="PEOPLE 1FXHALL:ZONE1" has comfort related schedules but no thermal comfort model selected.
   **   ~~~   ** If schedules are specified for air velocity, clothing insulation, and/or work efficiency but no thermal comfort
   **   ~~~   ** thermal comfort model is selected, the schedules will be listed as unused schedules in the .err file.
   **   ~~~   ** To avoid these errors, select a valid thermal comfort model or eliminate these schedules in the PEOPLE input.
   ** Warning ** GetInternalHeatGains: People="PEOPLE 1FXLECTUREHALL:ZONE2" has comfort related schedules but no thermal comfort model selected.
   **   ~~~   ** If schedules are specified for air velocity, clothing insulation, and/or work efficiency but no thermal comfort
   **   ~~~   ** thermal comfort model is selected, the schedules will be listed as unused schedules in the .err file.
   **   ~~~   ** To avoid these errors, select a valid thermal comfort model or eliminate these schedules in the PEOPLE input.
   ** Warning ** GetInternalHeatGains: People="PEOPLE 1FXLECTUREXRESTROOM:LECTURE" has comfort related schedules but no thermal comfort model selected.
   **   ~~~   ** If schedules are specified for air velocity, clothing insulation, and/or work efficiency but no thermal comfort
   **   ~~~   ** thermal comfort model is selected, the schedules will be listed as unused schedules in the .err file.
   **   ~~~   ** To avoid these errors, select a valid thermal comfort model or eliminate these schedules in the PEOPLE input.
   ** Warning ** GetInternalHeatGains: People="PEOPLE 1FXACCESSORYROOM:ZONE1" has comfort related schedules but no thermal comfort model selected.
   **   ~~~   ** If schedules are specified for air velocity, clothing insulation, and/or work efficiency but no thermal comfort
   **   ~~~   ** thermal comfort model is selected, the schedules will be listed as unused schedules in the .err file.
   **   ~~~   ** To avoid these errors, select a valid thermal comfort model or eliminate these schedules in the PEOPLE input.
   ** Warning ** GetInternalHeatGains: People="PEOPLE 1FXOFFICE:ZONE1" has comfort related schedules but no thermal comfort model selected.
   **   ~~~   ** If schedules are specified for air velocity, clothing insulation, and/or work efficiency but no thermal comfort
   **   ~~~   ** thermal comfort model is selected, the schedules will be listed as unused schedules in the .err file.
   **   ~~~   ** To avoid these errors, select a valid thermal comfort model or eliminate these schedules in the PEOPLE input.
   ** Warning ** GetInternalHeatGains: People="PEOPLE 2FXLAB:ZONE1" has comfort related schedules but no thermal comfort model selected.
   **   ~~~   ** If schedules are specified for air velocity, clothing insulation, and/or work efficiency but no thermal comfort
   **   ~~~   ** thermal comfort model is selected, the schedules will be listed as unused schedules in the .err file.
   **   ~~~   ** To avoid these errors, select a valid thermal comfort model or eliminate these schedules in the PEOPLE input.
   ** Warning ** GetInternalHeatGains: People="PEOPLE 2FXLABXRESTROOM:LAB" has comfort related schedules but no thermal comfort model selected.
   **   ~~~   ** If schedules are specified for air velocity, clothing insulation, and/or work efficiency but no thermal comfort
   **   ~~~   ** thermal comfort model is selected, the schedules will be listed as unused schedules in the .err file.
   **   ~~~   ** To avoid these errors, select a valid thermal comfort model or eliminate these schedules in the PEOPLE input.
   ** Warning ** GetInternalHeatGains: People="PEOPLE 2FXOFFICEXLAB:OFFICE" has comfort related schedules but no thermal comfort model selected.
   **   ~~~   ** If schedules are specified for air velocity, clothing insulation, and/or work efficiency but no thermal comfort
   **   ~~~   ** thermal comfort model is selected, the schedules will be listed as unused schedules in the .err file.
   **   ~~~   ** To avoid these errors, select a valid thermal comfort model or eliminate these schedules in the PEOPLE input.
   ** Warning ** GetInternalHeatGains: People="PEOPLE 2FXOFFICEXLAB:LAB" has comfort related schedules but no thermal comfort model selected.
   **   ~~~   ** If schedules are specified for air velocity, clothing insulation, and/or work efficiency but no thermal comfort
   **   ~~~   ** thermal comfort model is selected, the schedules will be listed as unused schedules in the .err file.
   **   ~~~   ** To avoid these errors, select a valid thermal comfort model or eliminate these schedules in the PEOPLE input.
   ** Warning ** GetInternalHeatGains: People="PEOPLE 2FXMEETINGROOM:ZONE1" has comfort related schedules but no thermal comfort model selected.
   **   ~~~   ** If schedules are specified for air velocity, clothing insulation, and/or work efficiency but no thermal comfort
   **   ~~~   ** thermal comfort model is selected, the schedules will be listed as unused schedules in the .err file.
   **   ~~~   ** To avoid these errors, select a valid thermal comfort model or eliminate these schedules in the PEOPLE input.
   ** Warning ** GetInternalHeatGains: People="PEOPLE 2FXOFFICEXAC:OFFICE" has comfort related schedules but no thermal comfort model selected.
   **   ~~~   ** If schedules are specified for air velocity, clothing insulation, and/or work efficiency but no thermal comfort
   **   ~~~   ** thermal comfort model is selected, the schedules will be listed as unused schedules in the .err file.
   **   ~~~   ** To avoid these errors, select a valid thermal comfort model or eliminate these schedules in the PEOPLE input.
   ** Warning ** GetInternalHeatGains: People="PEOPLE 2FXLABXRESTROOM1:LAB" has comfort related schedules but no thermal comfort model selected.
   **   ~~~   ** If schedules are specified for air velocity, clothing insulation, and/or work efficiency but no thermal comfort
   **   ~~~   ** thermal comfort model is selected, the schedules will be listed as unused schedules in the .err file.
   **   ~~~   ** To avoid these errors, select a valid thermal comfort model or eliminate these schedules in the PEOPLE input.
   ** Warning ** GetInternalHeatGains: People="PEOPLE 2FXLAB1:ZONE1" has comfort related schedules but no thermal comfort model selected.
   **   ~~~   ** If schedules are specified for air velocity, clothing insulation, and/or work efficiency but no thermal comfort
   **   ~~~   ** thermal comfort model is selected, the schedules will be listed as unused schedules in the .err file.
   **   ~~~   ** To avoid these errors, select a valid thermal comfort model or eliminate these schedules in the PEOPLE input.
   ** Warning ** GetInternalHeatGains: People="PEOPLE 2FXOFFICEXLABQ1:OFFICE" has comfort related schedules but no thermal comfort model selected.
   **   ~~~   ** If schedules are specified for air velocity, clothing insulation, and/or work efficiency but no thermal comfort
   **   ~~~   ** thermal comfort model is selected, the schedules will be listed as unused schedules in the .err file.
   **   ~~~   ** To avoid these errors, select a valid thermal comfort model or eliminate these schedules in the PEOPLE input.
   ** Warning ** GetInternalHeatGains: People="PEOPLE 2FXOFFICEXLABQ1:LAB" has comfort related schedules but no thermal comfort model selected.
   **   ~~~   ** If schedules are specified for air velocity, clothing insulation, and/or work efficiency but no thermal comfort
   **   ~~~   ** thermal comfort model is selected, the schedules will be listed as unused schedules in the .err file.
   **   ~~~   ** To avoid these errors, select a valid thermal comfort model or eliminate these schedules in the PEOPLE input.
   ** Warning ** GetInternalHeatGains: People="PEOPLE 2FXMEETINGROOM1:ZONE1" has comfort related schedules but no thermal comfort model selected.
   **   ~~~   ** If schedules are specified for air velocity, clothing insulation, and/or work efficiency but no thermal comfort
   **   ~~~   ** thermal comfort model is selected, the schedules will be listed as unused schedules in the .err file.
   **   ~~~   ** To avoid these errors, select a valid thermal comfort model or eliminate these schedules in the PEOPLE input.
   ** Warning ** GetInternalHeatGains: People="PEOPLE 3FXLAB:ZONE1" has comfort related schedules but no thermal comfort model selected.
   **   ~~~   ** If schedules are specified for air velocity, clothing insulation, and/or work efficiency but no thermal comfort
   **   ~~~   ** thermal comfort model is selected, the schedules will be listed as unused schedules in the .err file.
   **   ~~~   ** To avoid these errors, select a valid thermal comfort model or eliminate these schedules in the PEOPLE input.
   ** Warning ** GetInternalHeatGains: People="PEOPLE 3FXLABXRESTROOM:LAB" has comfort related schedules but no thermal comfort model selected.
   **   ~~~   ** If schedules are specified for air velocity, clothing insulation, and/or work efficiency but no thermal comfort
   **   ~~~   ** thermal comfort model is selected, the schedules will be listed as unused schedules in the .err file.
   **   ~~~   ** To avoid these errors, select a valid thermal comfort model or eliminate these schedules in the PEOPLE input.
   ** Warning ** GetInternalHeatGains: People="PEOPLE 3FXMEETINGROOM:ZONE1" has comfort related schedules but no thermal comfort model selected.
   **   ~~~   ** If schedules are specified for air velocity, clothing insulation, and/or work efficiency but no thermal comfort
   **   ~~~   ** thermal comfort model is selected, the schedules will be listed as unused schedules in the .err file.
   **   ~~~   ** To avoid these errors, select a valid thermal comfort model or eliminate these schedules in the PEOPLE input.
   ** Warning ** GetInternalHeatGains: People="PEOPLE 2FXFFCXC1XDYLGHT:OFFICE" has comfort related schedules but no thermal comfort model selected.
   **   ~~~   ** If schedules are specified for air velocity, clothing insulation, and/or work efficiency but no thermal comfort
   **   ~~~   ** thermal comfort model is selected, the schedules will be listed as unused schedules in the .err file.
   **   ~~~   ** To avoid these errors, select a valid thermal comfort model or eliminate these schedules in the PEOPLE input.
   ** Warning ** GetInternalHeatGains: People="PEOPLE 3FXOFFICEXLAB1:OFFICE" has comfort related schedules but no thermal comfort model selected.
   **   ~~~   ** If schedules are specified for air velocity, clothing insulation, and/or work efficiency but no thermal comfort
   **   ~~~   ** thermal comfort model is selected, the schedules will be listed as unused schedules in the .err file.
   **   ~~~   ** To avoid these errors, select a valid thermal comfort model or eliminate these schedules in the PEOPLE input.
   ** Warning ** GetInternalHeatGains: People="PEOPLE 3FXOFFICEXLAB1:LAB" has comfort related schedules but no thermal comfort model selected.
   **   ~~~   ** If schedules are specified for air velocity, clothing insulation, and/or work efficiency but no thermal comfort
   **   ~~~   ** thermal comfort model is selected, the schedules will be listed as unused schedules in the .err file.
   **   ~~~   ** To avoid these errors, select a valid thermal comfort model or eliminate these schedules in the PEOPLE input.
   ** Warning ** GetInternalHeatGains: People="PEOPLE 3FXOFFICEXLAB:OFFICE" has comfort related schedules but no thermal comfort model selected.
   **   ~~~   ** If schedules are specified for air velocity, clothing insulation, and/or work efficiency but no thermal comfort
   **   ~~~   ** thermal comfort model is selected, the schedules will be listed as unused schedules in the .err file.
   **   ~~~   ** To avoid these errors, select a valid thermal comfort model or eliminate these schedules in the PEOPLE input.
   ** Warning ** GetInternalHeatGains: People="PEOPLE 3FXOFFICEXLAB:LAB" has comfort related schedules but no thermal comfort model selected.
   **   ~~~   ** If schedules are specified for air velocity, clothing insulation, and/or work efficiency but no thermal comfort
   **   ~~~   ** thermal comfort model is selected, the schedules will be listed as unused schedules in the .err file.
   **   ~~~   ** To avoid these errors, select a valid thermal comfort model or eliminate these schedules in the PEOPLE input.
   ** Warning ** GetInternalHeatGains: People="PEOPLE 3FXLABXRESTROOM1:LAB" has comfort related schedules but no thermal comfort model selected.
   **   ~~~   ** If schedules are specified for air velocity, clothing insulation, and/or work efficiency but no thermal comfort
   **   ~~~   ** thermal comfort model is selected, the schedules will be listed as unused schedules in the .err file.
   **   ~~~   ** To avoid these errors, select a valid thermal comfort model or eliminate these schedules in the PEOPLE input.
   ** Warning ** GetInternalHeatGains: People="PEOPLE 3FXLAB1:ZONE1" has comfort related schedules but no thermal comfort model selected.
   **   ~~~   ** If schedules are specified for air velocity, clothing insulation, and/or work efficiency but no thermal comfort
   **   ~~~   ** thermal comfort model is selected, the schedules will be listed as unused schedules in the .err file.
   **   ~~~   ** To avoid these errors, select a valid thermal comfort model or eliminate these schedules in the PEOPLE input.
   ** Warning ** GetInternalHeatGains: People="PEOPLE 3FXMEETINGROOM1:ZONE1" has comfort related schedules but no thermal comfort model selected.
   **   ~~~   ** If schedules are specified for air velocity, clothing insulation, and/or work efficiency but no thermal comfort
   **   ~~~   ** thermal comfort model is selected, the schedules will be listed as unused schedules in the .err file.
   **   ~~~   ** To avoid these errors, select a valid thermal comfort model or eliminate these schedules in the PEOPLE input.
   ** Warning ** GetInternalHeatGains: People="PEOPLE 4FXLAB:ZONE1" has comfort related schedules but no thermal comfort model selected.
   **   ~~~   ** If schedules are specified for air velocity, clothing insulation, and/or work efficiency but no thermal comfort
   **   ~~~   ** thermal comfort model is selected, the schedules will be listed as unused schedules in the .err file.
   **   ~~~   ** To avoid these errors, select a valid thermal comfort model or eliminate these schedules in the PEOPLE input.
   ** Warning ** GetInternalHeatGains: People="PEOPLE 4FXLABXRESTROOM:LAB" has comfort related schedules but no thermal comfort model selected.
   **   ~~~   ** If schedules are specified for air velocity, clothing insulation, and/or work efficiency but no thermal comfort
   **   ~~~   ** thermal comfort model is selected, the schedules will be listed as unused schedules in the .err file.
   **   ~~~   ** To avoid these errors, select a valid thermal comfort model or eliminate these schedules in the PEOPLE input.
   ** Warning ** GetInternalHeatGains: People="PEOPLE 4FXMEETINGROOM:ZONE1" has comfort related schedules but no thermal comfort model selected.
   **   ~~~   ** If schedules are specified for air velocity, clothing insulation, and/or work efficiency but no thermal comfort
   **   ~~~   ** thermal comfort model is selected, the schedules will be listed as unused schedules in the .err file.
   **   ~~~   ** To avoid these errors, select a valid thermal comfort model or eliminate these schedules in the PEOPLE input.
   ** Warning ** GetInternalHeatGains: People="PEOPLE 4FXOFFICEXLAB:OFFICE" has comfort related schedules but no thermal comfort model selected.
   **   ~~~   ** If schedules are specified for air velocity, clothing insulation, and/or work efficiency but no thermal comfort
   **   ~~~   ** thermal comfort model is selected, the schedules will be listed as unused schedules in the .err file.
   **   ~~~   ** To avoid these errors, select a valid thermal comfort model or eliminate these schedules in the PEOPLE input.
   ** Warning ** GetInternalHeatGains: People="PEOPLE 4FXOFFICEXLAB:LAB" has comfort related schedules but no thermal comfort model selected.
   **   ~~~   ** If schedules are specified for air velocity, clothing insulation, and/or work efficiency but no thermal comfort
   **   ~~~   ** thermal comfort model is selected, the schedules will be listed as unused schedules in the .err file.
   **   ~~~   ** To avoid these errors, select a valid thermal comfort model or eliminate these schedules in the PEOPLE input.
   ** Warning ** GetInternalHeatGains: People="PEOPLE 4FXOFFICEXLAB1:OFFICE" has comfort related schedules but no thermal comfort model selected.
   **   ~~~   ** If schedules are specified for air velocity, clothing insulation, and/or work efficiency but no thermal comfort
   **   ~~~   ** thermal comfort model is selected, the schedules will be listed as unused schedules in the .err file.
   **   ~~~   ** To avoid these errors, select a valid thermal comfort model or eliminate these schedules in the PEOPLE input.
   ** Warning ** GetInternalHeatGains: People="PEOPLE 4FXOFFICEXLAB1:LAB" has comfort related schedules but no thermal comfort model selected.
   **   ~~~   ** If schedules are specified for air velocity, clothing insulation, and/or work efficiency but no thermal comfort
   **   ~~~   ** thermal comfort model is selected, the schedules will be listed as unused schedules in the .err file.
   **   ~~~   ** To avoid these errors, select a valid thermal comfort model or eliminate these schedules in the PEOPLE input.
   ** Warning ** GetInternalHeatGains: People="PEOPLE 4FXLABXRESTROOMQ1:LAB" has comfort related schedules but no thermal comfort model selected.
   **   ~~~   ** If schedules are specified for air velocity, clothing insulation, and/or work efficiency but no thermal comfort
   **   ~~~   ** thermal comfort model is selected, the schedules will be listed as unused schedules in the .err file.
   **   ~~~   ** To avoid these errors, select a valid thermal comfort model or eliminate these schedules in the PEOPLE input.
   ** Warning ** GetInternalHeatGains: People="PEOPLE 4FXLAB1:ZONE1" has comfort related schedules but no thermal comfort model selected.
   **   ~~~   ** If schedules are specified for air velocity, clothing insulation, and/or work efficiency but no thermal comfort
   **   ~~~   ** thermal comfort model is selected, the schedules will be listed as unused schedules in the .err file.
   **   ~~~   ** To avoid these errors, select a valid thermal comfort model or eliminate these schedules in the PEOPLE input.
   ** Warning ** GetInternalHeatGains: People="PEOPLE 4FXMEETINGROOM1:ZONE1" has comfort related schedules but no thermal comfort model selected.
   **   ~~~   ** If schedules are specified for air velocity, clothing insulation, and/or work efficiency but no thermal comfort
   **   ~~~   ** thermal comfort model is selected, the schedules will be listed as unused schedules in the .err file.
   **   ~~~   ** To avoid these errors, select a valid thermal comfort model or eliminate these schedules in the PEOPLE input.
   ** Warning ** GetInternalHeatGains: People="PEOPLE 4FXFFCXCXDYLGHTNG:OFFICE" has comfort related schedules but no thermal comfort model selected.
   **   ~~~   ** If schedules are specified for air velocity, clothing insulation, and/or work efficiency but no thermal comfort
   **   ~~~   ** thermal comfort model is selected, the schedules will be listed as unused schedules in the .err file.
   **   ~~~   ** To avoid these errors, select a valid thermal comfort model or eliminate these schedules in the PEOPLE input.
   ** Warning ** GetInternalHeatGains: People="PEOPLE 4FXOFFICEXAC1:OFFICE" has comfort related schedules but no thermal comfort model selected.
   **   ~~~   ** If schedules are specified for air velocity, clothing insulation, and/or work efficiency but no thermal comfort
   **   ~~~   ** thermal comfort model is selected, the schedules will be listed as unused schedules in the .err file.
   **   ~~~   ** To avoid these errors, select a valid thermal comfort model or eliminate these schedules in the PEOPLE input.
   ** Warning ** GetInternalHeatGains: People="PEOPLE 5FXOFFICEXAC:OFFICE" has comfort related schedules but no thermal comfort model selected.
   **   ~~~   ** If schedules are specified for air velocity, clothing insulation, and/or work efficiency but no thermal comfort
   **   ~~~   ** thermal comfort model is selected, the schedules will be listed as unused schedules in the .err file.
   **   ~~~   ** To avoid these errors, select a valid thermal comfort model or eliminate these schedules in the PEOPLE input.
   ** Warning ** GetInternalHeatGains: People="PEOPLE 5FXFFCXC1XDYLGHTNG:OFFICE" has comfort related schedules but no thermal comfort model selected.
   **   ~~~   ** If schedules are specified for air velocity, clothing insulation, and/or work efficiency but no thermal comfort
   **   ~~~   ** thermal comfort model is selected, the schedules will be listed as unused schedules in the .err file.
   **   ~~~   ** To avoid these errors, select a valid thermal comfort model or eliminate these schedules in the PEOPLE input.
   ** Warning ** GetInternalHeatGains: People="PEOPLE 5FXOFFICEXLAB:OFFICE" has comfort related schedules but no thermal comfort model selected.
   **   ~~~   ** If schedules are specified for air velocity, clothing insulation, and/or work efficiency but no thermal comfort
   **   ~~~   ** thermal comfort model is selected, the schedules will be listed as unused schedules in the .err file.
   **   ~~~   ** To avoid these errors, select a valid thermal comfort model or eliminate these schedules in the PEOPLE input.
   ** Warning ** GetInternalHeatGains: People="PEOPLE 5FXOFFICEXLAB:LAB" has comfort related schedules but no thermal comfort model selected.
   **   ~~~   ** If schedules are specified for air velocity, clothing insulation, and/or work efficiency but no thermal comfort
   **   ~~~   ** thermal comfort model is selected, the schedules will be listed as unused schedules in the .err file.
   **   ~~~   ** To avoid these errors, select a valid thermal comfort model or eliminate these schedules in the PEOPLE input.
   ** Warning ** GetInternalHeatGains: People="PEOPLE 5FXOFFICEXLABQ1:OFFICE" has comfort related schedules but no thermal comfort model selected.
   **   ~~~   ** If schedules are specified for air velocity, clothing insulation, and/or work efficiency but no thermal comfort
   **   ~~~   ** thermal comfort model is selected, the schedules will be listed as unused schedules in the .err file.
   **   ~~~   ** To avoid these errors, select a valid thermal comfort model or eliminate these schedules in the PEOPLE input.
   ** Warning ** GetInternalHeatGains: People="PEOPLE 5FXOFFICEXLABQ1:LAB" has comfort related schedules but no thermal comfort model selected.
   **   ~~~   ** If schedules are specified for air velocity, clothing insulation, and/or work efficiency but no thermal comfort
   **   ~~~   ** thermal comfort model is selected, the schedules will be listed as unused schedules in the .err file.
   **   ~~~   ** To avoid these errors, select a valid thermal comfort model or eliminate these schedules in the PEOPLE input.
   ** Warning ** GetInternalHeatGains: People="PEOPLE 5FXLABXRESTROOM:LAB" has comfort related schedules but no thermal comfort model selected.
   **   ~~~   ** If schedules are specified for air velocity, clothing insulation, and/or work efficiency but no thermal comfort
   **   ~~~   ** thermal comfort model is selected, the schedules will be listed as unused schedules in the .err file.
   **   ~~~   ** To avoid these errors, select a valid thermal comfort model or eliminate these schedules in the PEOPLE input.
   ** Warning ** GetInternalHeatGains: People="PEOPLE 5FXLAB:ZONE1" has comfort related schedules but no thermal comfort model selected.
   **   ~~~   ** If schedules are specified for air velocity, clothing insulation, and/or work efficiency but no thermal comfort
   **   ~~~   ** thermal comfort model is selected, the schedules will be listed as unused schedules in the .err file.
   **   ~~~   ** To avoid these errors, select a valid thermal comfort model or eliminate these schedules in the PEOPLE input.
   ** Warning ** GetInternalHeatGains: People="PEOPLE 5FXMEETINGROOM:ZONE1" has comfort related schedules but no thermal comfort model selected.
   **   ~~~   ** If schedules are specified for air velocity, clothing insulation, and/or work efficiency but no thermal comfort
   **   ~~~   ** thermal comfort model is selected, the schedules will be listed as unused schedules in the .err file.
   **   ~~~   ** To avoid these errors, select a valid thermal comfort model or eliminate these schedules in the PEOPLE input.
   ** Warning ** GetInternalHeatGains: People="PEOPLE 5FXMEETINGROOM1:ZONE1" has comfort related schedules but no thermal comfort model selected.
   **   ~~~   ** If schedules are specified for air velocity, clothing insulation, and/or work efficiency but no thermal comfort
   **   ~~~   ** thermal comfort model is selected, the schedules will be listed as unused schedules in the .err file.
   **   ~~~   ** To avoid these errors, select a valid thermal comfort model or eliminate these schedules in the PEOPLE input.
   ** Warning ** GetInternalHeatGains: People="PEOPLE 5FXLAB1:ZONE1" has comfort related schedules but no thermal comfort model selected.
   **   ~~~   ** If schedules are specified for air velocity, clothing insulation, and/or work efficiency but no thermal comfort
   **   ~~~   ** thermal comfort model is selected, the schedules will be listed as unused schedules in the .err file.
   **   ~~~   ** To avoid these errors, select a valid thermal comfort model or eliminate these schedules in the PEOPLE input.
   ** Warning ** GetInternalHeatGains: People="PEOPLE 5FXLABXRESTROOM1:LAB" has comfort related schedules but no thermal comfort model selected.
   **   ~~~   ** If schedules are specified for air velocity, clothing insulation, and/or work efficiency but no thermal comfort
   **   ~~~   ** thermal comfort model is selected, the schedules will be listed as unused schedules in the .err file.
   **   ~~~   ** To avoid these errors, select a valid thermal comfort model or eliminate these schedules in the PEOPLE input.
   ** Warning ** GetInternalHeatGains: People="PEOPLE 3FXFFCXCXDYLGHTNG:OFFICE" has comfort related schedules but no thermal comfort model selected.
   **   ~~~   ** If schedules are specified for air velocity, clothing insulation, and/or work efficiency but no thermal comfort
   **   ~~~   ** thermal comfort model is selected, the schedules will be listed as unused schedules in the .err file.
   **   ~~~   ** To avoid these errors, select a valid thermal comfort model or eliminate these schedules in the PEOPLE input.
   ** Warning ** GetInternalHeatGains: People="PEOPLE 3FXOFFICEXAC1:OFFICE" has comfort related schedules but no thermal comfort model selected.
   **   ~~~   ** If schedules are specified for air velocity, clothing insulation, and/or work efficiency but no thermal comfort
   **   ~~~   ** thermal comfort model is selected, the schedules will be listed as unused schedules in the .err file.
   **   ~~~   ** To avoid these errors, select a valid thermal comfort model or eliminate these schedules in the PEOPLE input.
   ** Warning ** GetInternalHeatGains: People="PEOPLE BLOCK3:ZONE1" has comfort related schedules but no thermal comfort model selected.
   **   ~~~   ** If schedules are specified for air velocity, clothing insulation, and/or work efficiency but no thermal comfort
   **   ~~~   ** thermal comfort model is selected, the schedules will be listed as unused schedules in the .err file.
   **   ~~~   ** To avoid these errors, select a valid thermal comfort model or eliminate these schedules in the PEOPLE input.
   ** Warning ** Calculation of reflected solar onto surface=1FXEXHIBITION:ZONE1_WALL_2_0_0 may be inaccurate
   **   ~~~   ** because it has one or more vertices below ground level.
   ** Warning ** Calculation of reflected solar onto surface=1FXEXHIBITION:ZONE1_WALL_3_0_0 may be inaccurate
   **   ~~~   ** because it has one or more vertices below ground level.
   ** Warning ** Calculation of reflected solar onto surface=1FXEXHIBITION:ZONE1_WALL_4_0_0 may be inaccurate
   **   ~~~   ** because it has one or more vertices below ground level.
   ** Warning ** Calculation of reflected solar onto surface=1FXEXHIBITION:ZONE1_WALL_5_0_0 may be inaccurate
   **   ~~~   ** because it has one or more vertices below ground level.
   ** Warning ** Calculation of reflected solar onto surface=1FXRECEPTION:ZONE1_WALL_2_0_0 may be inaccurate
   **   ~~~   ** because it has one or more vertices below ground level.
   ** Warning ** Calculation of reflected solar onto surface=1FXRECEPTION:ZONE1_WALL_3_0_0 may be inaccurate
   **   ~~~   ** because it has one or more vertices below ground level.
   ** Warning ** Calculation of reflected solar onto surface=1FXRECEPTION:ZONE1_WALL_4_0_0 may be inaccurate
   **   ~~~   ** because it has one or more vertices below ground level.
   ** Warning ** Calculation of reflected solar onto surface=1FXRECEPTION:ZONE1_WALL_5_0_0 may be inaccurate
   **   ~~~   ** because it has one or more vertices below ground level.
   ** Warning ** Calculation of reflected solar onto surface=1FXACCEEORYROOM:ZONE1_WALL_2_0_0 may be inaccurate
   **   ~~~   ** because it has one or more vertices below ground level.
   ** Warning ** Calculation of reflected solar onto surface=1FXACCEEORYROOM:ZONE1_WALL_3_0_0 may be inaccurate
   **   ~~~   ** because it has one or more vertices below ground level.
   ** Warning ** Calculation of reflected solar onto surface=1FXACCEEORYROOM:ZONE1_WALL_4_0_0 may be inaccurate
   **   ~~~   ** because it has one or more vertices below ground level.
   ** Warning ** Calculation of reflected solar onto surface=1FXACCEEORYROOM:ZONE1_WALL_5_0_0 may be inaccurate
   **   ~~~   ** because it has one or more vertices below ground level.
   ** Warning ** Calculation of reflected solar onto surface=1FXHALL:ZONE1_WALL_2_0_0 may be inaccurate
   **   ~~~   ** because it has one or more vertices below ground level.
   ** Warning ** Calculation of reflected solar onto surface=1FXHALL:ZONE1_WALL_3_0_0 may be inaccurate
   **   ~~~   ** because it has one or more vertices below ground level.
   ** Warning ** Calculation of reflected solar onto surface=1FXHALL:ZONE1_WALL_4_0_0 may be inaccurate
   **   ~~~   ** because it has one or more vertices below ground level.
   ** Warning ** Calculation of reflected solar onto surface=1FXHALL:ZONE1_WALL_5_0_0 may be inaccurate
   **   ~~~   ** because it has one or more vertices below ground level.
   ** Warning ** Calculation of reflected solar onto surface=1FXLECTUREHALL:ZONE2_WALL_2_0_0 may be inaccurate
   **   ~~~   ** because it has one or more vertices below ground level.
   ** Warning ** Calculation of reflected solar onto surface=1FXLECTUREHALL:ZONE2_WALL_3_0_0 may be inaccurate
   **   ~~~   ** because it has one or more vertices below ground level.
   ** Warning ** Calculation of reflected solar onto surface=1FXLECTUREHALL:ZONE2_WALL_4_0_0 may be inaccurate
   **   ~~~   ** because it has one or more vertices below ground level.
   ** Warning ** Calculation of reflected solar onto surface=1FXLECTUREHALL:ZONE2_WALL_5_0_0 may be inaccurate
   **   ~~~   ** because it has one or more vertices below ground level.
   ** Warning ** Calculation of reflected solar onto surface=1FXLECTUREXRESTROOM:RESTROOM_WALL_3_0_0 may be inaccurate
   **   ~~~   ** because it has one or more vertices below ground level.
   ** Warning ** Calculation of reflected solar onto surface=1FXLECTUREXRESTROOM:RESTROOM_WALL_4_0_0 may be inaccurate
   **   ~~~   ** because it has one or more vertices below ground level.
   ** Warning ** Calculation of reflected solar onto surface=1FXLECTUREXRESTROOM:RESTROOM_WALL_5_0_0 may be inaccurate
   **   ~~~   ** because it has one or more vertices below ground level.
   ** Warning ** Calculation of reflected solar onto surface=1FXLECTUREXRESTROOM:LECTURE_WALL_2_0_0 may be inaccurate
   **   ~~~   ** because it has one or more vertices below ground level.
   ** Warning ** Calculation of reflected solar onto surface=1FXLECTUREXRESTROOM:LECTURE_WALL_3_0_0 may be inaccurate
   **   ~~~   ** because it has one or more vertices below ground level.
   ** Warning ** Calculation of reflected solar onto surface=1FXLECTUREXRESTROOM:LECTURE_WALL_4_0_0 may be inaccurate
   **   ~~~   ** because it has one or more vertices below ground level.
   ** Warning ** Calculation of reflected solar onto surface=1FXACCESSORYROOM:ZONE1_WALL_2_0_0 may be inaccurate
   **   ~~~   ** because it has one or more vertices below ground level.
   ** Warning ** Calculation of reflected solar onto surface=1FXACCESSORYROOM:ZONE1_WALL_3_0_0 may be inaccurate
   **   ~~~   ** because it has one or more vertices below ground level.
   ** Warning ** Calculation of reflected solar onto surface=1FXACCESSORYROOM:ZONE1_WALL_4_0_0 may be inaccurate
   **   ~~~   ** because it has one or more vertices below ground level.
   ** Warning ** Calculation of reflected solar onto surface=1FXACCESSORYROOM:ZONE1_WALL_5_0_0 may be inaccurate
   **   ~~~   ** because it has one or more vertices below ground level.
   ** Warning ** Calculation of reflected solar onto surface=1FXOFFICE:ZONE1_WALL_2_0_0 may be inaccurate
   **   ~~~   ** because it has one or more vertices below ground level.
   ** Warning ** Calculation of reflected solar onto surface=1FXOFFICE:ZONE1_WALL_3_0_0 may be inaccurate
   **   ~~~   ** because it has one or more vertices below ground level.
   ** Warning ** Calculation of reflected solar onto surface=1FXOFFICE:ZONE1_WALL_4_0_0 may be inaccurate
   **   ~~~   ** because it has one or more vertices below ground level.
   ** Warning ** Calculation of reflected solar onto surface=1FXOFFICE:ZONE1_WALL_5_0_0 may be inaccurate
   **   ~~~   ** because it has one or more vertices below ground level.
   ** Warning ** Calculation of reflected solar onto surface=1FXSERVICEROOM:ZONE1_WALL_2_0_0 may be inaccurate
   **   ~~~   ** because it has one or more vertices below ground level.
   ** Warning ** Calculation of reflected solar onto surface=1FXSERVICEROOM:ZONE1_WALL_3_0_0 may be inaccurate
   **   ~~~   ** because it has one or more vertices below ground level.
   ** Warning ** Calculation of reflected solar onto surface=1FXSERVICEROOM:ZONE1_WALL_4_0_0 may be inaccurate
   **   ~~~   ** because it has one or more vertices below ground level.
   ** Warning ** Calculation of reflected solar onto surface=1FXSERVICEROOM:ZONE1_WALL_5_0_0 may be inaccurate
   **   ~~~   ** because it has one or more vertices below ground level.
   ** Warning ** DeterminePolygonOverlap: Too many figures [>15000]  detected in an overlap calculation. Use Output:Diagnostics,DisplayExtraWarnings; for more details.
   ** Warning ** Detailed daylighting will not be done for Daylighting:Controls=BASEMENT2:B1XGYM
   **   ~~~   ** because it has no associated exterior windows.
   ** Warning ** GeneratorController constructor ElectricLoadCenter:Generators, Availability Schedule for Generator:Photovoltaics 'SOLAR COLLECTOR 1' of Type PhotovoltaicPerformance:Simple will be be ignored (runs all the time).
   **   ~~~   ** To limit this Generator:Photovoltaic's output, please use the Inverter's availability schedule instead.
   ** Warning ** GeneratorController constructor ElectricLoadCenter:Generators, Availability Schedule for Generator:Photovoltaics 'SOLAR COLLECTOR 2' of Type PhotovoltaicPerformance:Simple will be be ignored (runs all the time).
   **   ~~~   ** To limit this Generator:Photovoltaic's output, please use the Inverter's availability schedule instead.
   ** Warning ** GeneratorController constructor ElectricLoadCenter:Generators, Availability Schedule for Generator:Photovoltaics 'SOLAR COLLECTOR 3' of Type PhotovoltaicPerformance:Simple will be be ignored (runs all the time).
   **   ~~~   ** To limit this Generator:Photovoltaic's output, please use the Inverter's availability schedule instead.
   ** Warning ** GeneratorController constructor ElectricLoadCenter:Generators, Availability Schedule for Generator:Photovoltaics 'SOLAR COLLECTOR 4' of Type PhotovoltaicPerformance:Simple will be be ignored (runs all the time).
   **   ~~~   ** To limit this Generator:Photovoltaic's output, please use the Inverter's availability schedule instead.
   ** Warning ** Calculated design heating load for zone=BASEMENT2:B1XSERVERROOM is zero.
   **   ~~~   ** Check Sizing:Zone and ZoneControl:Thermostat inputs.
   ** Warning ** Calculated design heating load for zone=BASEMENT2:B1XCORE is zero.
   **   ~~~   ** Check Sizing:Zone and ZoneControl:Thermostat inputs.
   ** Warning ** Calculated design heating load for zone=BASEMENT2:B1XCORRIDOR is zero.
   **   ~~~   ** Check Sizing:Zone and ZoneControl:Thermostat inputs.
   ** Warning ** Calculated design heating load for zone=BASEMENT2:B1XEQUIPMENTROOM is zero.
   **   ~~~   ** Check Sizing:Zone and ZoneControl:Thermostat inputs.
   ** Warning ** Calculated design heating load for zone=BASEMENT2:B1XGYM is zero.
   **   ~~~   ** Check Sizing:Zone and ZoneControl:Thermostat inputs.
   ** Warning ** Calculated design heating load for zone=BASEMENT2:B1XSHOP is zero.
   **   ~~~   ** Check Sizing:Zone and ZoneControl:Thermostat inputs.
   ** Warning ** Calculated design heating load for zone=BASEMENT2:B1XCANTEEN is zero.
   **   ~~~   ** Check Sizing:Zone and ZoneControl:Thermostat inputs.
   ** Warning ** Calculated design heating load for zone=1FXEXHIBITION:ZONE1 is zero.
   **   ~~~   ** Check Sizing:Zone and ZoneControl:Thermostat inputs.
   ** Warning ** Calculated design heating load for zone=1FXRECEPTION:ZONE1 is zero.
   **   ~~~   ** Check Sizing:Zone and ZoneControl:Thermostat inputs.
   ** Warning ** Calculated design heating load for zone=1FXACCEEORYROOM:ZONE1 is zero.
   **   ~~~   ** Check Sizing:Zone and ZoneControl:Thermostat inputs.
   ** Warning ** Calculated design heating load for zone=1FXHALL:ZONE1 is zero.
   **   ~~~   ** Check Sizing:Zone and ZoneControl:Thermostat inputs.
   ** Warning ** Calculated design heating load for zone=1FXLECTUREHALL:ZONE2 is zero.
   **   ~~~   ** Check Sizing:Zone and ZoneControl:Thermostat inputs.
   ** Warning ** Calculated design heating load for zone=1FXLECTUREXRESTROOM:RESTROOM is zero.
   **   ~~~   ** Check Sizing:Zone and ZoneControl:Thermostat inputs.
   ** Warning ** Calculated design heating load for zone=1FXLECTUREXRESTROOM:LECTURE is zero.
   **   ~~~   ** Check Sizing:Zone and ZoneControl:Thermostat inputs.
   ** Warning ** Calculated design heating load for zone=1FXACCESSORYROOM:ZONE1 is zero.
   **   ~~~   ** Check Sizing:Zone and ZoneControl:Thermostat inputs.
   ** Warning ** Calculated design heating load for zone=1FXOFFICE:ZONE1 is zero.
   **   ~~~   ** Check Sizing:Zone and ZoneControl:Thermostat inputs.
   ** Warning ** Calculated design heating load for zone=1FXSERVICEROOM:ZONE1 is zero.
   **   ~~~   ** Check Sizing:Zone and ZoneControl:Thermostat inputs.
   ** Warning ** Calculated design heating load for zone=2FXLAB:ZONE1 is zero.
   **   ~~~   ** Check Sizing:Zone and ZoneControl:Thermostat inputs.
   ** Warning ** Calculated design heating load for zone=2FXLABXRESTROOM:RESTROOM is zero.
   **   ~~~   ** Check Sizing:Zone and ZoneControl:Thermostat inputs.
   ** Warning ** Calculated design heating load for zone=2FXLABXRESTROOM:LAB is zero.
   **   ~~~   ** Check Sizing:Zone and ZoneControl:Thermostat inputs.
   ** Warning ** Calculated design heating load for zone=2FXOFFICEXLAB:OFFICE is zero.
   **   ~~~   ** Check Sizing:Zone and ZoneControl:Thermostat inputs.
   ** Warning ** Calculated design heating load for zone=2FXOFFICEXLAB:AC is zero.
   **   ~~~   ** Check Sizing:Zone and ZoneControl:Thermostat inputs.
   ** Warning ** Calculated design heating load for zone=2FXOFFICEXLAB:LAB is zero.
   **   ~~~   ** Check Sizing:Zone and ZoneControl:Thermostat inputs.
   ** Warning ** Calculated design heating load for zone=2FXMEETINGROOM:ZONE1 is zero.
   **   ~~~   ** Check Sizing:Zone and ZoneControl:Thermostat inputs.
   ** Warning ** Calculated design heating load for zone=2FXOFFICEXAC:OFFICE is zero.
   **   ~~~   ** Check Sizing:Zone and ZoneControl:Thermostat inputs.
   ** Warning ** Calculated design heating load for zone=2FXLABXRESTROOM1:RESTROOM is zero.
   **   ~~~   ** Check Sizing:Zone and ZoneControl:Thermostat inputs.
   ** Warning ** Calculated design heating load for zone=2FXLABXRESTROOM1:LAB is zero.
   **   ~~~   ** Check Sizing:Zone and ZoneControl:Thermostat inputs.
   ** Warning ** Calculated design heating load for zone=2FXLAB1:ZONE1 is zero.
   **   ~~~   ** Check Sizing:Zone and ZoneControl:Thermostat inputs.
   ** Warning ** Calculated design heating load for zone=2FXOFFICEXLABQ1:OFFICE is zero.
   **   ~~~   ** Check Sizing:Zone and ZoneControl:Thermostat inputs.
   ** Warning ** Calculated design heating load for zone=2FXOFFICEXLABQ1:AC is zero.
   **   ~~~   ** Check Sizing:Zone and ZoneControl:Thermostat inputs.
   ** Warning ** Calculated design heating load for zone=2FXOFFICEXLABQ1:LAB is zero.
   **   ~~~   ** Check Sizing:Zone and ZoneControl:Thermostat inputs.
   ** Warning ** Calculated design heating load for zone=2FXMEETINGROOM1:ZONE1 is zero.
   **   ~~~   ** Check Sizing:Zone and ZoneControl:Thermostat inputs.
   ** Warning ** Calculated design heating load for zone=3FXLAB:ZONE1 is zero.
   **   ~~~   ** Check Sizing:Zone and ZoneControl:Thermostat inputs.
   ** Warning ** Calculated design heating load for zone=3FXLABXRESTROOM:RESTROOM is zero.
   **   ~~~   ** Check Sizing:Zone and ZoneControl:Thermostat inputs.
   ** Warning ** Calculated design heating load for zone=3FXLABXRESTROOM:LAB is zero.
   **   ~~~   ** Check Sizing:Zone and ZoneControl:Thermostat inputs.
   ** Warning ** Calculated design heating load for zone=3FXMEETINGROOM:ZONE1 is zero.
   **   ~~~   ** Check Sizing:Zone and ZoneControl:Thermostat inputs.
   ** Warning ** Calculated design heating load for zone=2FXFFCXC1XDYLGHT:OFFICE is zero.
   **   ~~~   ** Check Sizing:Zone and ZoneControl:Thermostat inputs.
   ** Warning ** Calculated design heating load for zone=3FXOFFICEXLAB1:OFFICE is zero.
   **   ~~~   ** Check Sizing:Zone and ZoneControl:Thermostat inputs.
   ** Warning ** Calculated design heating load for zone=3FXOFFICEXLAB1:LAB is zero.
   **   ~~~   ** Check Sizing:Zone and ZoneControl:Thermostat inputs.
   ** Warning ** Calculated design heating load for zone=3FXOFFICEXLAB1:AC is zero.
   **   ~~~   ** Check Sizing:Zone and ZoneControl:Thermostat inputs.
   ** Warning ** Calculated design heating load for zone=3FXOFFICEXLAB:OFFICE is zero.
   **   ~~~   ** Check Sizing:Zone and ZoneControl:Thermostat inputs.
   ** Warning ** Calculated design heating load for zone=3FXOFFICEXLAB:RESTROOM is zero.
   **   ~~~   ** Check Sizing:Zone and ZoneControl:Thermostat inputs.
   ** Warning ** Calculated design heating load for zone=3FXOFFICEXLAB:LAB is zero.
   **   ~~~   ** Check Sizing:Zone and ZoneControl:Thermostat inputs.
   ** Warning ** Calculated design heating load for zone=3FXLABXRESTROOM1:RESTROOM is zero.
   **   ~~~   ** Check Sizing:Zone and ZoneControl:Thermostat inputs.
   ** Warning ** Calculated design heating load for zone=3FXLABXRESTROOM1:LAB is zero.
   **   ~~~   ** Check Sizing:Zone and ZoneControl:Thermostat inputs.
   ** Warning ** Calculated design heating load for zone=3FXLAB1:ZONE1 is zero.
   **   ~~~   ** Check Sizing:Zone and ZoneControl:Thermostat inputs.
   ** Warning ** Calculated design heating load for zone=3FXMEETINGROOM1:ZONE1 is zero.
   **   ~~~   ** Check Sizing:Zone and ZoneControl:Thermostat inputs.
   ** Warning ** Calculated design heating load for zone=4FXLAB:ZONE1 is zero.
   **   ~~~   ** Check Sizing:Zone and ZoneControl:Thermostat inputs.
   ** Warning ** Calculated design heating load for zone=4FXLABXRESTROOM:RESTROOM is zero.
   **   ~~~   ** Check Sizing:Zone and ZoneControl:Thermostat inputs.
   ** Warning ** Calculated design heating load for zone=4FXLABXRESTROOM:LAB is zero.
   **   ~~~   ** Check Sizing:Zone and ZoneControl:Thermostat inputs.
   ** Warning ** Calculated design heating load for zone=4FXMEETINGROOM:ZONE1 is zero.
   **   ~~~   ** Check Sizing:Zone and ZoneControl:Thermostat inputs.
   ** Warning ** Calculated design heating load for zone=4FXOFFICEXLAB:OFFICE is zero.
   **   ~~~   ** Check Sizing:Zone and ZoneControl:Thermostat inputs.
   ** Warning ** Calculated design heating load for zone=4FXOFFICEXLAB:AC is zero.
   **   ~~~   ** Check Sizing:Zone and ZoneControl:Thermostat inputs.
   ** Warning ** Calculated design heating load for zone=4FXOFFICEXLAB:LAB is zero.
   **   ~~~   ** Check Sizing:Zone and ZoneControl:Thermostat inputs.
   ** Warning ** Calculated design heating load for zone=4FXOFFICEXLAB1:OFFICE is zero.
   **   ~~~   ** Check Sizing:Zone and ZoneControl:Thermostat inputs.
   ** Warning ** Calculated design heating load for zone=4FXOFFICEXLAB1:AC is zero.
   **   ~~~   ** Check Sizing:Zone and ZoneControl:Thermostat inputs.
   ** Warning ** Calculated design heating load for zone=4FXOFFICEXLAB1:LAB is zero.
   **   ~~~   ** Check Sizing:Zone and ZoneControl:Thermostat inputs.
   ** Warning ** Calculated design heating load for zone=4FXLABXRESTROOMQ1:LAB is zero.
   **   ~~~   ** Check Sizing:Zone and ZoneControl:Thermostat inputs.
   ** Warning ** Calculated design heating load for zone=4FXLABXRESTROOMQ1:RESTROOM is zero.
   **   ~~~   ** Check Sizing:Zone and ZoneControl:Thermostat inputs.
   ** Warning ** Calculated design heating load for zone=4FXLAB1:ZONE1 is zero.
   **   ~~~   ** Check Sizing:Zone and ZoneControl:Thermostat inputs.
   ** Warning ** Calculated design heating load for zone=4FXMEETINGROOM1:ZONE1 is zero.
   **   ~~~   ** Check Sizing:Zone and ZoneControl:Thermostat inputs.
   ** Warning ** Calculated design heating load for zone=4FXFFCXCXDYLGHTNG:OFFICE is zero.
   **   ~~~   ** Check Sizing:Zone and ZoneControl:Thermostat inputs.
   ** Warning ** Calculated design heating load for zone=4FXOFFICEXAC1:OFFICE is zero.
   **   ~~~   ** Check Sizing:Zone and ZoneControl:Thermostat inputs.
   ** Warning ** Calculated design heating load for zone=5FXOFFICEXAC:OFFICE is zero.
   **   ~~~   ** Check Sizing:Zone and ZoneControl:Thermostat inputs.
   ** Warning ** Calculated design heating load for zone=5FXFFCXC1XDYLGHTNG:OFFICE is zero.
   **   ~~~   ** Check Sizing:Zone and ZoneControl:Thermostat inputs.
   ** Warning ** Calculated design heating load for zone=5FXOFFICEXLAB:OFFICE is zero.
   **   ~~~   ** Check Sizing:Zone and ZoneControl:Thermostat inputs.
   ** Warning ** Calculated design heating load for zone=5FXOFFICEXLAB:AC is zero.
   **   ~~~   ** Check Sizing:Zone and ZoneControl:Thermostat inputs.
   ** Warning ** Calculated design heating load for zone=5FXOFFICEXLAB:LAB is zero.
   **   ~~~   ** Check Sizing:Zone and ZoneControl:Thermostat inputs.
   ** Warning ** Calculated design heating load for zone=5FXOFFICEXLABQ1:OFFICE is zero.
   **   ~~~   ** Check Sizing:Zone and ZoneControl:Thermostat inputs.
   ** Warning ** Calculated design heating load for zone=5FXOFFICEXLABQ1:AC is zero.
   **   ~~~   ** Check Sizing:Zone and ZoneControl:Thermostat inputs.
   ** Warning ** Calculated design heating load for zone=5FXOFFICEXLABQ1:LAB is zero.
   **   ~~~   ** Check Sizing:Zone and ZoneControl:Thermostat inputs.
   ** Warning ** Calculated design heating load for zone=5FXLABXRESTROOM:RESTROOM is zero.
   **   ~~~   ** Check Sizing:Zone and ZoneControl:Thermostat inputs.
   ** Warning ** Calculated design heating load for zone=5FXLABXRESTROOM:LAB is zero.
   **   ~~~   ** Check Sizing:Zone and ZoneControl:Thermostat inputs.
   ** Warning ** Calculated design heating load for zone=5FXLAB:ZONE1 is zero.
   **   ~~~   ** Check Sizing:Zone and ZoneControl:Thermostat inputs.
   ** Warning ** Calculated design heating load for zone=5FXMEETINGROOM:ZONE1 is zero.
   **   ~~~   ** Check Sizing:Zone and ZoneControl:Thermostat inputs.
   ** Warning ** Calculated design heating load for zone=5FXMEETINGROOM1:ZONE1 is zero.
   **   ~~~   ** Check Sizing:Zone and ZoneControl:Thermostat inputs.
   ** Warning ** Calculated design heating load for zone=5FXLAB1:ZONE1 is zero.
   **   ~~~   ** Check Sizing:Zone and ZoneControl:Thermostat inputs.
   ** Warning ** Calculated design heating load for zone=5FXLABXRESTROOM1:LAB is zero.
   **   ~~~   ** Check Sizing:Zone and ZoneControl:Thermostat inputs.
   ** Warning ** Calculated design heating load for zone=5FXLABXRESTROOM1:RESTROOM is zero.
   **   ~~~   ** Check Sizing:Zone and ZoneControl:Thermostat inputs.
   ** Warning ** Calculated design heating load for zone=3FXFFCXCXDYLGHTNG:OFFICE is zero.
   **   ~~~   ** Check Sizing:Zone and ZoneControl:Thermostat inputs.
   ** Warning ** Calculated design heating load for zone=3FXOFFICEXAC1:OFFICE is zero.
   **   ~~~   ** Check Sizing:Zone and ZoneControl:Thermostat inputs.
   ************* Beginning System Sizing Calculations
   ** Warning ** Since Zone Minimum Air Flow Input Method = CONSTANT, input for Fixed Minimum Air Flow Rate will be ignored.
   **   ~~~   ** Occurs in AirTerminal:SingleDuct:VAV:NoReheat = BASEMENT2:B1XCORRIDOR SINGLE DUCT VAV NO REHEAT
   ** Warning ** Since Zone Minimum Air Flow Input Method = CONSTANT, input for Fixed Minimum Air Flow Rate will be ignored.
   **   ~~~   ** Occurs in AirTerminal:SingleDuct:VAV:NoReheat = BASEMENT2:B1XEQUIPMENTROOM SINGLE DUCT VAV NO REHEAT
   ** Warning ** Since Zone Minimum Air Flow Input Method = CONSTANT, input for Fixed Minimum Air Flow Rate will be ignored.
   **   ~~~   ** Occurs in AirTerminal:SingleDuct:VAV:NoReheat = BASEMENT2:B1XGYM SINGLE DUCT VAV NO REHEAT
   ** Warning ** Since Zone Minimum Air Flow Input Method = CONSTANT, input for Fixed Minimum Air Flow Rate will be ignored.
   **   ~~~   ** Occurs in AirTerminal:SingleDuct:VAV:NoReheat = BASEMENT2:B1XSHOP SINGLE DUCT VAV NO REHEAT
   ** Warning ** Since Zone Minimum Air Flow Input Method = CONSTANT, input for Fixed Minimum Air Flow Rate will be ignored.
   **   ~~~   ** Occurs in AirTerminal:SingleDuct:VAV:NoReheat = BASEMENT2:B1XCANTEEN SINGLE DUCT VAV NO REHEAT
   ** Warning ** Since Zone Minimum Air Flow Input Method = CONSTANT, input for Fixed Minimum Air Flow Rate will be ignored.
   **   ~~~   ** Occurs in AirTerminal:SingleDuct:VAV:NoReheat = 1FXEXHIBITION:ZONE1 SINGLE DUCT VAV NO REHEAT
   ** Warning ** Since Zone Minimum Air Flow Input Method = CONSTANT, input for Fixed Minimum Air Flow Rate will be ignored.
   **   ~~~   ** Occurs in AirTerminal:SingleDuct:VAV:NoReheat = 1FXRECEPTION:ZONE1 SINGLE DUCT VAV NO REHEAT
   ** Warning ** Since Zone Minimum Air Flow Input Method = CONSTANT, input for Fixed Minimum Air Flow Rate will be ignored.
   **   ~~~   ** Occurs in AirTerminal:SingleDuct:VAV:NoReheat = 1FXACCEEORYROOM:ZONE1 SINGLE DUCT VAV NO REHEAT
   ** Warning ** Since Zone Minimum Air Flow Input Method = CONSTANT, input for Fixed Minimum Air Flow Rate will be ignored.
   **   ~~~   ** Occurs in AirTerminal:SingleDuct:VAV:NoReheat = 1FXHALL:ZONE1 SINGLE DUCT VAV NO REHEAT
   ** Warning ** Since Zone Minimum Air Flow Input Method = CONSTANT, input for Fixed Minimum Air Flow Rate will be ignored.
   **   ~~~   ** Occurs in AirTerminal:SingleDuct:VAV:NoReheat = 1FXLECTUREHALL:ZONE2 SINGLE DUCT VAV NO REHEAT
   ** Warning ** Since Zone Minimum Air Flow Input Method = CONSTANT, input for Fixed Minimum Air Flow Rate will be ignored.
   **   ~~~   ** Occurs in AirTerminal:SingleDuct:VAV:NoReheat = 1FXLECTUREXRESTROOM:LECTURE SINGLE DUCT VAV NO REHEAT
   ** Warning ** Since Zone Minimum Air Flow Input Method = CONSTANT, input for Fixed Minimum Air Flow Rate will be ignored.
   **   ~~~   ** Occurs in AirTerminal:SingleDuct:VAV:NoReheat = 1FXACCESSORYROOM:ZONE1 SINGLE DUCT VAV NO REHEAT
   ** Warning ** Since Zone Minimum Air Flow Input Method = CONSTANT, input for Fixed Minimum Air Flow Rate will be ignored.
   **   ~~~   ** Occurs in AirTerminal:SingleDuct:VAV:NoReheat = 1FXOFFICE:ZONE1 SINGLE DUCT VAV NO REHEAT
   ** Warning ** Since Zone Minimum Air Flow Input Method = CONSTANT, input for Fixed Minimum Air Flow Rate will be ignored.
   **   ~~~   ** Occurs in AirTerminal:SingleDuct:VAV:NoReheat = 1FXSERVICEROOM:ZONE1 SINGLE DUCT VAV NO REHEAT
   ** Warning ** Since Zone Minimum Air Flow Input Method = CONSTANT, input for Fixed Minimum Air Flow Rate will be ignored.
   **   ~~~   ** Occurs in AirTerminal:SingleDuct:VAV:NoReheat = 2FXLAB:ZONE1 SINGLE DUCT VAV NO REHEAT
   ** Warning ** Since Zone Minimum Air Flow Input Method = CONSTANT, input for Fixed Minimum Air Flow Rate will be ignored.
   **   ~~~   ** Occurs in AirTerminal:SingleDuct:VAV:NoReheat = 2FXLABXRESTROOM:LAB SINGLE DUCT VAV NO REHEAT
   ** Warning ** Since Zone Minimum Air Flow Input Method = CONSTANT, input for Fixed Minimum Air Flow Rate will be ignored.
   **   ~~~   ** Occurs in AirTerminal:SingleDuct:VAV:NoReheat = 2FXOFFICEXLAB:OFFICE SINGLE DUCT VAV NO REHEAT
   ** Warning ** Since Zone Minimum Air Flow Input Method = CONSTANT, input for Fixed Minimum Air Flow Rate will be ignored.
   **   ~~~   ** Occurs in AirTerminal:SingleDuct:VAV:NoReheat = 2FXOFFICEXLAB:LAB SINGLE DUCT VAV NO REHEAT
   ** Warning ** Since Zone Minimum Air Flow Input Method = CONSTANT, input for Fixed Minimum Air Flow Rate will be ignored.
   **   ~~~   ** Occurs in AirTerminal:SingleDuct:VAV:NoReheat = 2FXMEETINGROOM:ZONE1 SINGLE DUCT VAV NO REHEAT
   ** Warning ** Since Zone Minimum Air Flow Input Method = CONSTANT, input for Fixed Minimum Air Flow Rate will be ignored.
   **   ~~~   ** Occurs in AirTerminal:SingleDuct:VAV:NoReheat = 2FXOFFICEXAC:OFFICE SINGLE DUCT VAV NO REHEAT
   ** Warning ** Since Zone Minimum Air Flow Input Method = CONSTANT, input for Fixed Minimum Air Flow Rate will be ignored.
   **   ~~~   ** Occurs in AirTerminal:SingleDuct:VAV:NoReheat = 2FXLABXRESTROOM1:LAB SINGLE DUCT VAV NO REHEAT
   ** Warning ** Since Zone Minimum Air Flow Input Method = CONSTANT, input for Fixed Minimum Air Flow Rate will be ignored.
   **   ~~~   ** Occurs in AirTerminal:SingleDuct:VAV:NoReheat = 2FXLAB1:ZONE1 SINGLE DUCT VAV NO REHEAT
   ** Warning ** Since Zone Minimum Air Flow Input Method = CONSTANT, input for Fixed Minimum Air Flow Rate will be ignored.
   **   ~~~   ** Occurs in AirTerminal:SingleDuct:VAV:NoReheat = 2FXOFFICEXLABQ1:OFFICE SINGLE DUCT VAV NO REHEAT
   ** Warning ** Since Zone Minimum Air Flow Input Method = CONSTANT, input for Fixed Minimum Air Flow Rate will be ignored.
   **   ~~~   ** Occurs in AirTerminal:SingleDuct:VAV:NoReheat = 2FXOFFICEXLABQ1:LAB SINGLE DUCT VAV NO REHEAT
   ** Warning ** Since Zone Minimum Air Flow Input Method = CONSTANT, input for Fixed Minimum Air Flow Rate will be ignored.
   **   ~~~   ** Occurs in AirTerminal:SingleDuct:VAV:NoReheat = 2FXMEETINGROOM1:ZONE1 SINGLE DUCT VAV NO REHEAT
   ** Warning ** Since Zone Minimum Air Flow Input Method = CONSTANT, input for Fixed Minimum Air Flow Rate will be ignored.
   **   ~~~   ** Occurs in AirTerminal:SingleDuct:VAV:NoReheat = 2FXFFCXC1XDYLGHT:OFFICE SINGLE DUCT VAV NO REHEAT
   ** Warning ** Since Zone Minimum Air Flow Input Method = CONSTANT, input for Fixed Minimum Air Flow Rate will be ignored.
   **   ~~~   ** Occurs in AirTerminal:SingleDuct:VAV:NoReheat = 3FXLAB:ZONE1 SINGLE DUCT VAV NO REHEAT
   ** Warning ** Since Zone Minimum Air Flow Input Method = CONSTANT, input for Fixed Minimum Air Flow Rate will be ignored.
   **   ~~~   ** Occurs in AirTerminal:SingleDuct:VAV:NoReheat = 3FXLABXRESTROOM:LAB SINGLE DUCT VAV NO REHEAT
   ** Warning ** Since Zone Minimum Air Flow Input Method = CONSTANT, input for Fixed Minimum Air Flow Rate will be ignored.
   **   ~~~   ** Occurs in AirTerminal:SingleDuct:VAV:NoReheat = 3FXMEETINGROOM:ZONE1 SINGLE DUCT VAV NO REHEAT
   ** Warning ** Since Zone Minimum Air Flow Input Method = CONSTANT, input for Fixed Minimum Air Flow Rate will be ignored.
   **   ~~~   ** Occurs in AirTerminal:SingleDuct:VAV:NoReheat = 3FXOFFICEXLAB1:OFFICE SINGLE DUCT VAV NO REHEAT
   ** Warning ** Since Zone Minimum Air Flow Input Method = CONSTANT, input for Fixed Minimum Air Flow Rate will be ignored.
   **   ~~~   ** Occurs in AirTerminal:SingleDuct:VAV:NoReheat = 3FXOFFICEXLAB1:LAB SINGLE DUCT VAV NO REHEAT
   ** Warning ** Since Zone Minimum Air Flow Input Method = CONSTANT, input for Fixed Minimum Air Flow Rate will be ignored.
   **   ~~~   ** Occurs in AirTerminal:SingleDuct:VAV:NoReheat = 3FXOFFICEXLAB:OFFICE SINGLE DUCT VAV NO REHEAT
   ** Warning ** Since Zone Minimum Air Flow Input Method = CONSTANT, input for Fixed Minimum Air Flow Rate will be ignored.
   **   ~~~   ** Occurs in AirTerminal:SingleDuct:VAV:NoReheat = 3FXOFFICEXLAB:LAB SINGLE DUCT VAV NO REHEAT
   ** Warning ** Since Zone Minimum Air Flow Input Method = CONSTANT, input for Fixed Minimum Air Flow Rate will be ignored.
   **   ~~~   ** Occurs in AirTerminal:SingleDuct:VAV:NoReheat = 3FXLABXRESTROOM1:LAB SINGLE DUCT VAV NO REHEAT
   ** Warning ** Since Zone Minimum Air Flow Input Method = CONSTANT, input for Fixed Minimum Air Flow Rate will be ignored.
   **   ~~~   ** Occurs in AirTerminal:SingleDuct:VAV:NoReheat = 3FXLAB1:ZONE1 SINGLE DUCT VAV NO REHEAT
   ** Warning ** Since Zone Minimum Air Flow Input Method = CONSTANT, input for Fixed Minimum Air Flow Rate will be ignored.
   **   ~~~   ** Occurs in AirTerminal:SingleDuct:VAV:NoReheat = 3FXMEETINGROOM1:ZONE1 SINGLE DUCT VAV NO REHEAT
   ** Warning ** Since Zone Minimum Air Flow Input Method = CONSTANT, input for Fixed Minimum Air Flow Rate will be ignored.
   **   ~~~   ** Occurs in AirTerminal:SingleDuct:VAV:NoReheat = 3FXFFCXCXDYLGHTNG:OFFICE SINGLE DUCT VAV NO REHEAT
   ** Warning ** Since Zone Minimum Air Flow Input Method = CONSTANT, input for Fixed Minimum Air Flow Rate will be ignored.
   **   ~~~   ** Occurs in AirTerminal:SingleDuct:VAV:NoReheat = 3FXOFFICEXAC1:OFFICE SINGLE DUCT VAV NO REHEAT
   ** Warning ** Since Zone Minimum Air Flow Input Method = CONSTANT, input for Fixed Minimum Air Flow Rate will be ignored.
   **   ~~~   ** Occurs in AirTerminal:SingleDuct:VAV:NoReheat = 4FXLAB:ZONE1 SINGLE DUCT VAV NO REHEAT
   ** Warning ** Since Zone Minimum Air Flow Input Method = CONSTANT, input for Fixed Minimum Air Flow Rate will be ignored.
   **   ~~~   ** Occurs in AirTerminal:SingleDuct:VAV:NoReheat = 4FXLABXRESTROOM:LAB SINGLE DUCT VAV NO REHEAT
   ** Warning ** Since Zone Minimum Air Flow Input Method = CONSTANT, input for Fixed Minimum Air Flow Rate will be ignored.
   **   ~~~   ** Occurs in AirTerminal:SingleDuct:VAV:NoReheat = 4FXMEETINGROOM:ZONE1 SINGLE DUCT VAV NO REHEAT
   ** Warning ** Since Zone Minimum Air Flow Input Method = CONSTANT, input for Fixed Minimum Air Flow Rate will be ignored.
   **   ~~~   ** Occurs in AirTerminal:SingleDuct:VAV:NoReheat = 4FXOFFICEXLAB:OFFICE SINGLE DUCT VAV NO REHEAT
   ** Warning ** Since Zone Minimum Air Flow Input Method = CONSTANT, input for Fixed Minimum Air Flow Rate will be ignored.
   **   ~~~   ** Occurs in AirTerminal:SingleDuct:VAV:NoReheat = 4FXOFFICEXLAB:LAB SINGLE DUCT VAV NO REHEAT
   ** Warning ** Since Zone Minimum Air Flow Input Method = CONSTANT, input for Fixed Minimum Air Flow Rate will be ignored.
   **   ~~~   ** Occurs in AirTerminal:SingleDuct:VAV:NoReheat = 4FXOFFICEXLAB1:OFFICE SINGLE DUCT VAV NO REHEAT
   ** Warning ** Since Zone Minimum Air Flow Input Method = CONSTANT, input for Fixed Minimum Air Flow Rate will be ignored.
   **   ~~~   ** Occurs in AirTerminal:SingleDuct:VAV:NoReheat = 4FXOFFICEXLAB1:LAB SINGLE DUCT VAV NO REHEAT
   ** Warning ** Since Zone Minimum Air Flow Input Method = CONSTANT, input for Fixed Minimum Air Flow Rate will be ignored.
   **   ~~~   ** Occurs in AirTerminal:SingleDuct:VAV:NoReheat = 4FXLABXRESTROOMQ1:LAB SINGLE DUCT VAV NO REHEAT
   ** Warning ** Since Zone Minimum Air Flow Input Method = CONSTANT, input for Fixed Minimum Air Flow Rate will be ignored.
   **   ~~~   ** Occurs in AirTerminal:SingleDuct:VAV:NoReheat = 4FXLAB1:ZONE1 SINGLE DUCT VAV NO REHEAT
   ** Warning ** Since Zone Minimum Air Flow Input Method = CONSTANT, input for Fixed Minimum Air Flow Rate will be ignored.
   **   ~~~   ** Occurs in AirTerminal:SingleDuct:VAV:NoReheat = 4FXMEETINGROOM1:ZONE1 SINGLE DUCT VAV NO REHEAT
   ** Warning ** Since Zone Minimum Air Flow Input Method = CONSTANT, input for Fixed Minimum Air Flow Rate will be ignored.
   **   ~~~   ** Occurs in AirTerminal:SingleDuct:VAV:NoReheat = 4FXFFCXCXDYLGHTNG:OFFICE SINGLE DUCT VAV NO REHEAT
   ** Warning ** Since Zone Minimum Air Flow Input Method = CONSTANT, input for Fixed Minimum Air Flow Rate will be ignored.
   **   ~~~   ** Occurs in AirTerminal:SingleDuct:VAV:NoReheat = 4FXOFFICEXAC1:OFFICE SINGLE DUCT VAV NO REHEAT
   ** Warning ** Since Zone Minimum Air Flow Input Method = CONSTANT, input for Fixed Minimum Air Flow Rate will be ignored.
   **   ~~~   ** Occurs in AirTerminal:SingleDuct:VAV:NoReheat = 5FXOFFICEXAC:OFFICE SINGLE DUCT VAV NO REHEAT
   ** Warning ** Since Zone Minimum Air Flow Input Method = CONSTANT, input for Fixed Minimum Air Flow Rate will be ignored.
   **   ~~~   ** Occurs in AirTerminal:SingleDuct:VAV:NoReheat = 5FXFFCXC1XDYLGHTNG:OFFICE SINGLE DUCT VAV NO REHEAT
   ** Warning ** Since Zone Minimum Air Flow Input Method = CONSTANT, input for Fixed Minimum Air Flow Rate will be ignored.
   **   ~~~   ** Occurs in AirTerminal:SingleDuct:VAV:NoReheat = 5FXOFFICEXLAB:OFFICE SINGLE DUCT VAV NO REHEAT
   ** Warning ** Since Zone Minimum Air Flow Input Method = CONSTANT, input for Fixed Minimum Air Flow Rate will be ignored.
   **   ~~~   ** Occurs in AirTerminal:SingleDuct:VAV:NoReheat = 5FXOFFICEXLAB:LAB SINGLE DUCT VAV NO REHEAT
   ** Warning ** Since Zone Minimum Air Flow Input Method = CONSTANT, input for Fixed Minimum Air Flow Rate will be ignored.
   **   ~~~   ** Occurs in AirTerminal:SingleDuct:VAV:NoReheat = 5FXOFFICEXLABQ1:OFFICE SINGLE DUCT VAV NO REHEAT
   ** Warning ** Since Zone Minimum Air Flow Input Method = CONSTANT, input for Fixed Minimum Air Flow Rate will be ignored.
   **   ~~~   ** Occurs in AirTerminal:SingleDuct:VAV:NoReheat = 5FXOFFICEXLABQ1:LAB SINGLE DUCT VAV NO REHEAT
   ** Warning ** Since Zone Minimum Air Flow Input Method = CONSTANT, input for Fixed Minimum Air Flow Rate will be ignored.
   **   ~~~   ** Occurs in AirTerminal:SingleDuct:VAV:NoReheat = 5FXLABXRESTROOM:LAB SINGLE DUCT VAV NO REHEAT
   ** Warning ** Since Zone Minimum Air Flow Input Method = CONSTANT, input for Fixed Minimum Air Flow Rate will be ignored.
   **   ~~~   ** Occurs in AirTerminal:SingleDuct:VAV:NoReheat = 5FXLAB:ZONE1 SINGLE DUCT VAV NO REHEAT
   ** Warning ** Since Zone Minimum Air Flow Input Method = CONSTANT, input for Fixed Minimum Air Flow Rate will be ignored.
   **   ~~~   ** Occurs in AirTerminal:SingleDuct:VAV:NoReheat = 5FXMEETINGROOM:ZONE1 SINGLE DUCT VAV NO REHEAT
   ** Warning ** Since Zone Minimum Air Flow Input Method = CONSTANT, input for Fixed Minimum Air Flow Rate will be ignored.
   **   ~~~   ** Occurs in AirTerminal:SingleDuct:VAV:NoReheat = 5FXMEETINGROOM1:ZONE1 SINGLE DUCT VAV NO REHEAT
   ** Warning ** Since Zone Minimum Air Flow Input Method = CONSTANT, input for Fixed Minimum Air Flow Rate will be ignored.
   **   ~~~   ** Occurs in AirTerminal:SingleDuct:VAV:NoReheat = 5FXLAB1:ZONE1 SINGLE DUCT VAV NO REHEAT
   ** Warning ** Since Zone Minimum Air Flow Input Method = CONSTANT, input for Fixed Minimum Air Flow Rate will be ignored.
   **   ~~~   ** Occurs in AirTerminal:SingleDuct:VAV:NoReheat = 5FXLABXRESTROOM1:LAB SINGLE DUCT VAV NO REHEAT
   ************* Beginning Plant Sizing Calculations
   ** Warning ** In calculating the design coil UA for Coil:Cooling:Water BASEMENT2:B1XCORRIDOR FAN COIL UNIT COOLING COIL
   **   ~~~   ** no apparatus dew-point can be found for the initial entering and leaving conditions;
   **   ~~~   ** The initial design conditions are: Tair,in = 24.1133
   **   ~~~   **                                    Wair,in = 1.402718E-002
   **   ~~~   **                                    Twater,in = 6.0000
   **   ~~~   **                                    Tair,out = 14.0000
   **   ~~~   **                                    Wair,out = 9.000000E-003
   ** Warning ** The design coil load is zero for Coil:Heating:Water BASEMENT2:B1XCORRIDOR FAN COIL UNIT HEATING COIL
   **   ~~~   ** The autosize value for maximum water flow rate is zero
   **   ~~~   ** To change this, input a value for UA, change the heating design day, or raise the
   **   ~~~   **   system heating design supply air temperature. Also check to make sure the Preheat
   **   ~~~   **   Design Temperature is not the same as the Central Heating Design Supply Air Temperature. 
   ** Warning ** In calculating the design coil UA for Coil:Cooling:Water BASEMENT2:B1XEQUIPMENTROOM FAN COIL UNIT COOLING COIL
   **   ~~~   ** no apparatus dew-point can be found for the initial entering and leaving conditions;
   **   ~~~   ** The initial design conditions are: Tair,in = 24.1131
   **   ~~~   **                                    Wair,in = 1.490496E-002
   **   ~~~   **                                    Twater,in = 6.0000
   **   ~~~   **                                    Tair,out = 14.0000
   **   ~~~   **                                    Wair,out = 9.000000E-003
   ** Warning ** The design coil load is zero for Coil:Heating:Water BASEMENT2:B1XEQUIPMENTROOM FAN COIL UNIT HEATING COIL
   **   ~~~   ** The autosize value for maximum water flow rate is zero
   **   ~~~   ** To change this, input a value for UA, change the heating design day, or raise the
   **   ~~~   **   system heating design supply air temperature. Also check to make sure the Preheat
   **   ~~~   **   Design Temperature is not the same as the Central Heating Design Supply Air Temperature. 
   ** Warning ** In calculating the design coil UA for Coil:Cooling:Water BASEMENT2:B1XGYM FAN COIL UNIT COOLING COIL
   **   ~~~   ** no apparatus dew-point can be found for the initial entering and leaving conditions;
   **   ~~~   ** The initial design conditions are: Tair,in = 24.1076
   **   ~~~   **                                    Wair,in = 1.452509E-002
   **   ~~~   **                                    Twater,in = 6.0000
   **   ~~~   **                                    Tair,out = 14.0000
   **   ~~~   **                                    Wair,out = 9.000000E-003
   ** Warning ** In calculating the design coil UA for Coil:Cooling:Water BASEMENT2:B1XSHOP FAN COIL UNIT COOLING COIL
   **   ~~~   ** no apparatus dew-point can be found for the initial entering and leaving conditions;
   **   ~~~   ** The initial design conditions are: Tair,in = 24.1080
   **   ~~~   **                                    Wair,in = 1.347721E-002
   **   ~~~   **                                    Twater,in = 6.0000
   **   ~~~   **                                    Tair,out = 14.0000
   **   ~~~   **                                    Wair,out = 9.000000E-003
   ** Warning ** Temperature out of range [-100. to 200.] (PsyPsatFnTemp)
   **   ~~~   **  Routine=PsyWFnTdpPb, Environment=WINTER DESIGN DAY IN GREEN STUDIO (01-01:31-12), at Simulation time=01/15 24:00 - 24:10
   **   ~~~   **  Input Temperature=6810.63
   ** Warning ** Calculated partial vapor pressure is greater than the barometric pressure, so that calculated humidity ratio is invalid (PsyWFnTdpPb).
   **   ~~~   **  Routine=Unknown, Environment=WINTER DESIGN DAY IN GREEN STUDIO (01-01:31-12), at Simulation time=01/15 24:00 - 24:10
   **   ~~~   **  Dew-Point= 6810.63 Barometric Pressure= 101132.90
   **   ~~~   ** Instead, calculated Humidity Ratio at 99.6 (6711 degree less) = 60.3735 will be used. Simulation continues.
   ** Warning ** In calculating the design coil UA for Coil:Cooling:Water BASEMENT2:B1XCANTEEN FAN COIL UNIT COOLING COIL
   **   ~~~   ** no apparatus dew-point can be found for the initial entering and leaving conditions;
   **   ~~~   ** The initial design conditions are: Tair,in = 24.1038
   **   ~~~   **                                    Wair,in = 1.414165E-002
   **   ~~~   **                                    Twater,in = 6.0000
   **   ~~~   **                                    Tair,out = 14.0000
   **   ~~~   **                                    Wair,out = 9.000000E-003
   ** Warning ** In calculating the design coil UA for Coil:Cooling:Water 1FXSERVICEROOM:ZONE1 FAN COIL UNIT COOLING COIL
   **   ~~~   ** no apparatus dew-point can be found for the initial entering and leaving conditions;
   **   ~~~   ** The initial design conditions are: Tair,in = 24.1133
   **   ~~~   **                                    Wair,in = 1.317688E-002
   **   ~~~   **                                    Twater,in = 6.0000
   **   ~~~   **                                    Tair,out = 14.0000
   **   ~~~   **                                    Wair,out = 9.000000E-003
   ** Warning ** The design coil load is zero for Coil:Heating:Water 1FXSERVICEROOM:ZONE1 FAN COIL UNIT HEATING COIL
   **   ~~~   ** The autosize value for maximum water flow rate is zero
   **   ~~~   ** To change this, input a value for UA, change the heating design day, or raise the
   **   ~~~   **   system heating design supply air temperature. Also check to make sure the Preheat
   **   ~~~   **   Design Temperature is not the same as the Central Heating Design Supply Air Temperature. 
   ** Warning ** Controller:MechanicalVentilation="AIR LOOP 2 AHU MECHANICAL VENTILATION CONTROLLER", Zone OA/person rate
   **   ~~~   ** For Zone="BASEMENT2:B1XCORRIDOR".
   **   ~~~   ** Zone outside air per person rate not set in Design Specification Outdoor Air Object="BASEMENT2:B1XCORRIDOR DESIGN SPECIFICATION OUTDOOR AIR OBJECT".
   ** Warning ** Controller:MechanicalVentilation = "AIR LOOP 2 AHU MECHANICAL VENTILATION CONTROLLER", Zone="BASEMENT2:B1XEQUIPMENTROOM".
   **   ~~~   ** No "PEOPLE" object has been specified in the idf for this zone, but the ventilation rate is > 0 in this Controller:MechanicalVentilation Object.
   **   ~~~   ** Check ventilation rate in Controller:MechanicalVentilation object.  Simulation will continue.
   ** Warning ** In calculating the design coil UA for Coil:Cooling:Water AIR LOOP 2 AHU COOLING COIL
   **   ~~~   ** no apparatus dew-point can be found for the initial entering and leaving conditions;
   **   ~~~   ** the coil outlet design conditions will be changed to correct the problem.
   **   ~~~   ** The initial design conditions are: Tair,in = 31.6648
   **   ~~~   **                                    Wair,in = 1.958287E-002
   **   ~~~   **                                    Twater,in = 6.0000
   **   ~~~   **                                    Tair,out = 16.7909
   **   ~~~   **                                    Wair,out = 8.000000E-003
   **   ~~~   ** The revised design conditions are: Tair,out = 14.1605
   **   ~~~   **                                    Wair,out = 9.061295E-003
   ** Warning ** In calculating the design coil UA for Coil:Cooling:Water AIR LOOP AHU COOLING COIL
   **   ~~~   ** no apparatus dew-point can be found for the initial entering and leaving conditions;
   **   ~~~   ** the coil outlet design conditions will be changed to correct the problem.
   **   ~~~   ** The initial design conditions are: Tair,in = 32.1168
   **   ~~~   **                                    Wair,in = 1.881430E-002
   **   ~~~   **                                    Twater,in = 6.0000
   **   ~~~   **                                    Tair,out = 16.7892
   **   ~~~   **                                    Wair,out = 8.000000E-003
   **   ~~~   ** The revised design conditions are: Tair,out = 14.1599
   **   ~~~   **                                    Wair,out = 9.060896E-003
   ** Warning ** In calculating the design coil UA for Coil:Cooling:Water AIR LOOP 3 AHU COOLING COIL
   **   ~~~   ** no apparatus dew-point can be found for the initial entering and leaving conditions;
   **   ~~~   ** the coil outlet design conditions will be changed to correct the problem.
   **   ~~~   ** The initial design conditions are: Tair,in = 32.0166
   **   ~~~   **                                    Wair,in = 1.883422E-002
   **   ~~~   **                                    Twater,in = 6.0000
   **   ~~~   **                                    Tair,out = 16.7892
   **   ~~~   **                                    Wair,out = 8.000000E-003
   **   ~~~   ** The revised design conditions are: Tair,out = 14.1599
   **   ~~~   **                                    Wair,out = 9.060906E-003
   ** Warning ** In calculating the design coil UA for Coil:Cooling:Water AIR LOOP 4 AHU COOLING COIL
   **   ~~~   ** no apparatus dew-point can be found for the initial entering and leaving conditions;
   **   ~~~   ** the coil outlet design conditions will be changed to correct the problem.
   **   ~~~   ** The initial design conditions are: Tair,in = 32.0094
   **   ~~~   **                                    Wair,in = 1.879861E-002
   **   ~~~   **                                    Twater,in = 6.0000
   **   ~~~   **                                    Tair,out = 16.7892
   **   ~~~   **                                    Wair,out = 8.000000E-003
   **   ~~~   ** The revised design conditions are: Tair,out = 14.1599
   **   ~~~   **                                    Wair,out = 9.060888E-003
   ** Warning ** Controller:MechanicalVentilation = "AIR LOOP 5 AHU MECHANICAL VENTILATION CONTROLLER", Zone="1FXSERVICEROOM:ZONE1".
   **   ~~~   ** No "PEOPLE" object has been specified in the idf for this zone, but the ventilation rate is > 0 in this Controller:MechanicalVentilation Object.
   **   ~~~   ** Check ventilation rate in Controller:MechanicalVentilation object.  Simulation will continue.
   ** Warning ** In calculating the design coil UA for Coil:Cooling:Water AIR LOOP 5 AHU COOLING COIL
   **   ~~~   ** no apparatus dew-point can be found for the initial entering and leaving conditions;
   **   ~~~   ** the coil outlet design conditions will be changed to correct the problem.
   **   ~~~   ** The initial design conditions are: Tair,in = 31.6441
   **   ~~~   **                                    Wair,in = 1.897120E-002
   **   ~~~   **                                    Twater,in = 6.0000
   **   ~~~   **                                    Tair,out = 16.7895
   **   ~~~   **                                    Wair,out = 8.000000E-003
   **   ~~~   ** The revised design conditions are: Tair,out = 14.1600
   **   ~~~   **                                    Wair,out = 9.060977E-003
   ** Warning ** In calculating the design coil UA for Coil:Cooling:Water AIR LOOP 6 AHU COOLING COIL
   **   ~~~   ** no apparatus dew-point can be found for the initial entering and leaving conditions;
   **   ~~~   ** the coil outlet design conditions will be changed to correct the problem.
   **   ~~~   ** The initial design conditions are: Tair,in = 31.9460
   **   ~~~   **                                    Wair,in = 1.884045E-002
   **   ~~~   **                                    Twater,in = 6.0000
   **   ~~~   **                                    Tair,out = 16.7893
   **   ~~~   **                                    Wair,out = 8.000000E-003
   **   ~~~   ** The revised design conditions are: Tair,out = 14.1599
   **   ~~~   **                                    Wair,out = 9.060909E-003
   ** Warning ** Water heater = DHW LOOP WATER HEATER:  Recovery Efficiency and Energy Factor could not be calculated during the test for standard ratings
   **   ~~~   ** Setpoint was never recovered and/or heater never turned on
   ** Warning ** Output:Meter: invalid Key Name="NATURALGAS:FACILITY" - not found.
   ** Warning ** Output:Meter: invalid Key Name="NATURALGAS:FACILITY" - not found.
   ** Warning ** Output:Meter: invalid Key Name="NATURALGAS:FACILITY" - not found.
   ** Warning ** Output:Meter: invalid Key Name="NATURALGAS:FACILITY" - not found.
   ** Warning ** Output:Meter: invalid Key Name="NATURALGAS:FACILITY" - not found.
   ************* Testing Individual Branch Integrity
   ************* All Branches passed integrity testing
   ************* Testing Individual Supply Air Path Integrity
   ************* All Supply Air Paths passed integrity testing
   ************* Testing Individual Return Air Path Integrity
   ************* All Return Air Paths passed integrity testing
   ************* No node connection errors were found.
   ************* Beginning Simulation
   ** Warning ** HeatExchanger:AirToAir:SensibleAndLatent "AIR LOOP 2 AHU HEAT RECOVERY DEVICE"
   **   ~~~   ** Average air volume flow rate is <50% or >130% of the nominal HX supply air volume flow rate.
   **   ~~~   ** Air volume flow rate ratio = 0.200. Environment=GREEN STUDIO (01-01:31-12), at Simulation time=01/01 07:00 - 07:10
   ** Warning ** HeatExchanger:AirToAir:SensibleAndLatent "AIR LOOP 5 AHU HEAT RECOVERY DEVICE"
   **   ~~~   ** Average air volume flow rate is <50% or >130% of the nominal HX supply air volume flow rate.
   **   ~~~   ** Air volume flow rate ratio = 5.997E-002. Environment=GREEN STUDIO (01-01:31-12), at Simulation time=01/01 07:00 - 07:10
   ** Warning ** In zone BASEMENT2:B1XSERVERROOM there is unbalanced air flow. Load due to induced outdoor air is neglected.
   **   ~~~   **  Environment=GREEN STUDIO (01-01:31-12), at Simulation time=01/01 07:00 - 07:10
   **   ~~~   **   Flows [m3/s]: Inlets: 0.000000  Unbalanced exhausts: 0.100000  Returns: 0.000000
   **   ~~~   **   Infiltration: 7.514265E-002  Zone Ventilation: 0.000000  Mixing (incoming): 0.000000
   **   ~~~   **   Imbalance (excess outflow): 2.485735E-002  Total system OA flow (for all airloops serving this zone): 0.000000
   **   ~~~   **   This error will only be reported once per zone.
   ** Warning ** In zone BASEMENT2:B1XCORE there is unbalanced air flow. Load due to induced outdoor air is neglected.
   **   ~~~   **  Environment=GREEN STUDIO (01-01:31-12), at Simulation time=01/01 07:00 - 07:10
   **   ~~~   **   Flows [m3/s]: Inlets: 0.000000  Unbalanced exhausts: 0.100000  Returns: 0.000000
   **   ~~~   **   Infiltration: 5.042866E-002  Zone Ventilation: 0.000000  Mixing (incoming): 0.000000
   **   ~~~   **   Imbalance (excess outflow): 4.957134E-002  Total system OA flow (for all airloops serving this zone): 0.000000
   **   ~~~   **   This error will only be reported once per zone.
   ** Warning ** In zone 1FXLECTUREXRESTROOM:RESTROOM there is unbalanced air flow. Load due to induced outdoor air is neglected.
   **   ~~~   **  Environment=GREEN STUDIO (01-01:31-12), at Simulation time=01/01 07:00 - 07:10
   **   ~~~   **   Flows [m3/s]: Inlets: 0.000000  Unbalanced exhausts: 0.100000  Returns: 0.000000
   **   ~~~   **   Infiltration: 5.883171E-003  Zone Ventilation: 0.000000  Mixing (incoming): 0.000000
   **   ~~~   **   Imbalance (excess outflow): 9.411683E-002  Total system OA flow (for all airloops serving this zone): 0.000000
   **   ~~~   **   This error will only be reported once per zone.
   ** Warning ** In zone 2FXLABXRESTROOM:RESTROOM there is unbalanced air flow. Load due to induced outdoor air is neglected.
   **   ~~~   **  Environment=GREEN STUDIO (01-01:31-12), at Simulation time=01/01 07:00 - 07:10
   **   ~~~   **   Flows [m3/s]: Inlets: 0.000000  Unbalanced exhausts: 0.100000  Returns: 0.000000
   **   ~~~   **   Infiltration: 4.708396E-003  Zone Ventilation: 0.000000  Mixing (incoming): 0.000000
   **   ~~~   **   Imbalance (excess outflow): 9.529160E-002  Total system OA flow (for all airloops serving this zone): 0.000000
   **   ~~~   **   This error will only be reported once per zone.
   ** Warning ** In zone 2FXOFFICEXLAB:AC there is unbalanced air flow. Load due to induced outdoor air is neglected.
   **   ~~~   **  Environment=GREEN STUDIO (01-01:31-12), at Simulation time=01/01 07:00 - 07:10
   **   ~~~   **   Flows [m3/s]: Inlets: 0.000000  Unbalanced exhausts: 0.100000  Returns: 0.000000
   **   ~~~   **   Infiltration: 1.939969E-002  Zone Ventilation: 0.000000  Mixing (incoming): 0.000000
   **   ~~~   **   Imbalance (excess outflow): 8.060031E-002  Total system OA flow (for all airloops serving this zone): 0.000000
   **   ~~~   **   This error will only be reported once per zone.
   ** Warning ** In zone 2FXLABXRESTROOM1:RESTROOM there is unbalanced air flow. Load due to induced outdoor air is neglected.
   **   ~~~   **  Environment=GREEN STUDIO (01-01:31-12), at Simulation time=01/01 07:00 - 07:10
   **   ~~~   **   Flows [m3/s]: Inlets: 0.000000  Unbalanced exhausts: 0.100000  Returns: 0.000000
   **   ~~~   **   Infiltration: 6.605230E-003  Zone Ventilation: 0.000000  Mixing (incoming): 0.000000
   **   ~~~   **   Imbalance (excess outflow): 9.339477E-002  Total system OA flow (for all airloops serving this zone): 0.000000
   **   ~~~   **   This error will only be reported once per zone.
   ** Warning ** In zone 2FXOFFICEXLABQ1:AC there is unbalanced air flow. Load due to induced outdoor air is neglected.
   **   ~~~   **  Environment=GREEN STUDIO (01-01:31-12), at Simulation time=01/01 07:00 - 07:10
   **   ~~~   **   Flows [m3/s]: Inlets: 0.000000  Unbalanced exhausts: 0.100000  Returns: 0.000000
   **   ~~~   **   Infiltration: 3.882177E-003  Zone Ventilation: 0.000000  Mixing (incoming): 0.000000
   **   ~~~   **   Imbalance (excess outflow): 9.611782E-002  Total system OA flow (for all airloops serving this zone): 0.000000
   **   ~~~   **   This error will only be reported once per zone.
   ** Warning ** In zone 3FXLABXRESTROOM:RESTROOM there is unbalanced air flow. Load due to induced outdoor air is neglected.
   **   ~~~   **  Environment=GREEN STUDIO (01-01:31-12), at Simulation time=01/01 07:00 - 07:10
   **   ~~~   **   Flows [m3/s]: Inlets: 0.000000  Unbalanced exhausts: 0.100000  Returns: 0.000000
   **   ~~~   **   Infiltration: 4.711043E-003  Zone Ventilation: 0.000000  Mixing (incoming): 0.000000
   **   ~~~   **   Imbalance (excess outflow): 9.528896E-002  Total system OA flow (for all airloops serving this zone): 0.000000
   **   ~~~   **   This error will only be reported once per zone.
   ** Warning ** In zone 3FXOFFICEXLAB1:AC there is unbalanced air flow. Load due to induced outdoor air is neglected.
   **   ~~~   **  Environment=GREEN STUDIO (01-01:31-12), at Simulation time=01/01 07:00 - 07:10
   **   ~~~   **   Flows [m3/s]: Inlets: 0.000000  Unbalanced exhausts: 0.100000  Returns: 0.000000
   **   ~~~   **   Infiltration: 3.878164E-003  Zone Ventilation: 0.000000  Mixing (incoming): 0.000000
   **   ~~~   **   Imbalance (excess outflow): 9.612184E-002  Total system OA flow (for all airloops serving this zone): 0.000000
   **   ~~~   **   This error will only be reported once per zone.
   ** Warning ** In zone 3FXOFFICEXLAB:RESTROOM there is unbalanced air flow. Load due to induced outdoor air is neglected.
   **   ~~~   **  Environment=GREEN STUDIO (01-01:31-12), at Simulation time=01/01 07:00 - 07:10
   **   ~~~   **   Flows [m3/s]: Inlets: 0.000000  Unbalanced exhausts: 0.100000  Returns: 0.000000
   **   ~~~   **   Infiltration: 3.879983E-003  Zone Ventilation: 0.000000  Mixing (incoming): 0.000000
   **   ~~~   **   Imbalance (excess outflow): 9.612002E-002  Total system OA flow (for all airloops serving this zone): 0.000000
   **   ~~~   **   This error will only be reported once per zone.
   ** Warning ** In zone 3FXLABXRESTROOM1:RESTROOM there is unbalanced air flow. Load due to induced outdoor air is neglected.
   **   ~~~   **  Environment=GREEN STUDIO (01-01:31-12), at Simulation time=01/01 07:00 - 07:10
   **   ~~~   **   Flows [m3/s]: Inlets: 0.000000  Unbalanced exhausts: 0.100000  Returns: 0.000000
   **   ~~~   **   Infiltration: 8.965283E-003  Zone Ventilation: 0.000000  Mixing (incoming): 0.000000
   **   ~~~   **   Imbalance (excess outflow): 9.103472E-002  Total system OA flow (for all airloops serving this zone): 0.000000
   **   ~~~   **   This error will only be reported once per zone.
   ** Warning ** In zone 4FXLABXRESTROOM:RESTROOM there is unbalanced air flow. Load due to induced outdoor air is neglected.
   **   ~~~   **  Environment=GREEN STUDIO (01-01:31-12), at Simulation time=01/01 07:00 - 07:10
   **   ~~~   **   Flows [m3/s]: Inlets: 0.000000  Unbalanced exhausts: 0.100000  Returns: 0.000000
   **   ~~~   **   Infiltration: 5.892380E-003  Zone Ventilation: 0.000000  Mixing (incoming): 0.000000
   **   ~~~   **   Imbalance (excess outflow): 9.410762E-002  Total system OA flow (for all airloops serving this zone): 0.000000
   **   ~~~   **   This error will only be reported once per zone.
   ** Warning ** In zone 4FXOFFICEXLAB:AC there is unbalanced air flow. Load due to induced outdoor air is neglected.
   **   ~~~   **  Environment=GREEN STUDIO (01-01:31-12), at Simulation time=01/01 07:00 - 07:10
   **   ~~~   **   Flows [m3/s]: Inlets: 0.000000  Unbalanced exhausts: 0.100000  Returns: 0.000000
   **   ~~~   **   Infiltration: 3.877170E-003  Zone Ventilation: 0.000000  Mixing (incoming): 0.000000
   **   ~~~   **   Imbalance (excess outflow): 9.612283E-002  Total system OA flow (for all airloops serving this zone): 0.000000
   **   ~~~   **   This error will only be reported once per zone.
   ** Warning ** In zone 4FXOFFICEXLAB1:AC there is unbalanced air flow. Load due to induced outdoor air is neglected.
   **   ~~~   **  Environment=GREEN STUDIO (01-01:31-12), at Simulation time=01/01 07:00 - 07:10
   **   ~~~   **   Flows [m3/s]: Inlets: 0.000000  Unbalanced exhausts: 0.100000  Returns: 0.000000
   **   ~~~   **   Infiltration: 3.878573E-003  Zone Ventilation: 0.000000  Mixing (incoming): 0.000000
   **   ~~~   **   Imbalance (excess outflow): 9.612143E-002  Total system OA flow (for all airloops serving this zone): 0.000000
   **   ~~~   **   This error will only be reported once per zone.
   ** Warning ** In zone 4FXLABXRESTROOMQ1:RESTROOM there is unbalanced air flow. Load due to induced outdoor air is neglected.
   **   ~~~   **  Environment=GREEN STUDIO (01-01:31-12), at Simulation time=01/01 07:00 - 07:10
   **   ~~~   **   Flows [m3/s]: Inlets: 0.000000  Unbalanced exhausts: 0.100000  Returns: 0.000000
   **   ~~~   **   Infiltration: 6.602779E-003  Zone Ventilation: 0.000000  Mixing (incoming): 0.000000
   **   ~~~   **   Imbalance (excess outflow): 9.339722E-002  Total system OA flow (for all airloops serving this zone): 0.000000
   **   ~~~   **   This error will only be reported once per zone.
   ** Warning ** In zone 5FXOFFICEXLAB:AC there is unbalanced air flow. Load due to induced outdoor air is neglected.
   **   ~~~   **  Environment=GREEN STUDIO (01-01:31-12), at Simulation time=01/01 07:00 - 07:10
   **   ~~~   **   Flows [m3/s]: Inlets: 0.000000  Unbalanced exhausts: 0.100000  Returns: 0.000000
   **   ~~~   **   Infiltration: 3.873592E-003  Zone Ventilation: 0.000000  Mixing (incoming): 0.000000
   **   ~~~   **   Imbalance (excess outflow): 9.612641E-002  Total system OA flow (for all airloops serving this zone): 0.000000
   **   ~~~   **   This error will only be reported once per zone.
   ** Warning ** In zone 5FXOFFICEXLABQ1:AC there is unbalanced air flow. Load due to induced outdoor air is neglected.
   **   ~~~   **  Environment=GREEN STUDIO (01-01:31-12), at Simulation time=01/01 07:00 - 07:10
   **   ~~~   **   Flows [m3/s]: Inlets: 0.000000  Unbalanced exhausts: 0.100000  Returns: 0.000000
   **   ~~~   **   Infiltration: 3.875636E-003  Zone Ventilation: 0.000000  Mixing (incoming): 0.000000
   **   ~~~   **   Imbalance (excess outflow): 9.612436E-002  Total system OA flow (for all airloops serving this zone): 0.000000
   **   ~~~   **   This error will only be reported once per zone.
   ** Warning ** In zone 5FXLABXRESTROOM:RESTROOM there is unbalanced air flow. Load due to induced outdoor air is neglected.
   **   ~~~   **  Environment=GREEN STUDIO (01-01:31-12), at Simulation time=01/01 07:00 - 07:10
   **   ~~~   **   Flows [m3/s]: Inlets: 0.000000  Unbalanced exhausts: 0.100000  Returns: 0.000000
   **   ~~~   **   Infiltration: 5.890806E-003  Zone Ventilation: 0.000000  Mixing (incoming): 0.000000
   **   ~~~   **   Imbalance (excess outflow): 9.410919E-002  Total system OA flow (for all airloops serving this zone): 0.000000
   **   ~~~   **   This error will only be reported once per zone.
   ** Warning ** In zone 5FXLABXRESTROOM1:RESTROOM there is unbalanced air flow. Load due to induced outdoor air is neglected.
   **   ~~~   **  Environment=GREEN STUDIO (01-01:31-12), at Simulation time=01/01 07:00 - 07:10
   **   ~~~   **   Flows [m3/s]: Inlets: 0.000000  Unbalanced exhausts: 0.100000  Returns: 0.000000
   **   ~~~   **   Infiltration: 5.891676E-003  Zone Ventilation: 0.000000  Mixing (incoming): 0.000000
   **   ~~~   **   Imbalance (excess outflow): 9.410832E-002  Total system OA flow (for all airloops serving this zone): 0.000000
   **   ~~~   **   This error will only be reported once per zone.
   ** Warning ** HeatExchanger:AirToAir:SensibleAndLatent "AIR LOOP AHU HEAT RECOVERY DEVICE"
   **   ~~~   ** Average air volume flow rate is <50% or >130% of the nominal HX supply air volume flow rate.
   **   ~~~   ** Air volume flow rate ratio = 0.301. Environment=GREEN STUDIO (01-01:31-12), at Simulation time=01/01 08:00 - 08:10
   ** Warning ** HeatExchanger:AirToAir:SensibleAndLatent "AIR LOOP 3 AHU HEAT RECOVERY DEVICE"
   **   ~~~   ** Average air volume flow rate is <50% or >130% of the nominal HX supply air volume flow rate.
   **   ~~~   ** Air volume flow rate ratio = 0.301. Environment=GREEN STUDIO (01-01:31-12), at Simulation time=01/01 08:00 - 08:10
   ** Warning ** HeatExchanger:AirToAir:SensibleAndLatent "AIR LOOP 4 AHU HEAT RECOVERY DEVICE"
   **   ~~~   ** Average air volume flow rate is <50% or >130% of the nominal HX supply air volume flow rate.
   **   ~~~   ** Air volume flow rate ratio = 0.301. Environment=GREEN STUDIO (01-01:31-12), at Simulation time=01/01 08:00 - 08:10
   ** Warning ** HeatExchanger:AirToAir:SensibleAndLatent "AIR LOOP 6 AHU HEAT RECOVERY DEVICE"
   **   ~~~   ** Average air volume flow rate is <50% or >130% of the nominal HX supply air volume flow rate.
   **   ~~~   ** Air volume flow rate ratio = 0.301. Environment=GREEN STUDIO (01-01:31-12), at Simulation time=01/01 08:00 - 08:10
   ** Warning ** SimHVAC: Maximum iterations (25) exceeded for all HVAC loops, at GREEN STUDIO (01-01:31-12), 01/01 16:40 - 16:50
   **   ~~~   ** The solution for one or more of the Air Loop HVAC systems did not appear to converge
   **   ~~~   ** ...use Output:Diagnostics,DisplayExtraWarnings; to show more details on each max iteration exceeded.
   ** Warning ** SimHVAC: Maximum iterations (25) exceeded for all HVAC loops, at GREEN STUDIO (01-01:31-12), 01/02 16:30 - 16:35
   **   ~~~   ** The solution for one or more of the Air Loop HVAC systems did not appear to converge
   ** Warning ** SimHVAC: Maximum iterations (25) exceeded for all HVAC loops, at GREEN STUDIO (01-01:31-12), 01/02 16:40 - 16:50
   **   ~~~   ** The solution for one or more of the Air Loop HVAC systems did not appear to converge
   ** Warning ** SimHVAC: Maximum iterations (25) exceeded for all HVAC loops, at GREEN STUDIO (01-01:31-12), 01/02 16:45 - 16:50
   **   ~~~   ** The solution for one or more of 